
 Fire Dynamics Simulator

 Current Date     : October 10, 2022  09:10:04
 Revision         : FDS6.7.9-0-gec52dee-HEAD
 Revision Date    : Sun Jun 26 14:36:40 2022 -0400
 Compiler         : ifort version 2021.2.0
 Compilation Date : Jun 30, 2022 15:04:40

 MPI Enabled;    Number of MPI Processes:       4
 OpenMP Disabled

 MPI version: 3.1
 MPI library version: Intel(R) MPI Library 2021.2 for Linux* OS


 Job TITLE        : model
 Job ID string    : model


 Grid Dimensions, Mesh     1

   Cells in the X Direction            50
   Cells in the Y Direction            50
   Cells in the Z Direction            30
   Number of Grid Cells             75000


 Physical Dimensions, Mesh     1

   Length (m)                       5.000
   Width  (m)                       5.000
   Height (m)                       3.000
   Initial Time Step (s)            0.079

 Grid Dimensions, Mesh     2

   Cells in the X Direction            50
   Cells in the Y Direction            50
   Cells in the Z Direction            40
   Number of Grid Cells            100000


 Physical Dimensions, Mesh     2

   Length (m)                       5.000
   Width  (m)                       5.000
   Height (m)                       4.000
   Initial Time Step (s)            0.079

 Grid Dimensions, Mesh     3

   Cells in the X Direction            50
   Cells in the Y Direction            50
   Cells in the Z Direction            30
   Number of Grid Cells             75000


 Physical Dimensions, Mesh     3

   Length (m)                       5.000
   Width  (m)                       5.000
   Height (m)                       3.000
   Initial Time Step (s)            0.079

 Grid Dimensions, Mesh     4

   Cells in the X Direction            50
   Cells in the Y Direction            50
   Cells in the Z Direction            40
   Number of Grid Cells            100000


 Physical Dimensions, Mesh     4

   Length (m)                       5.000
   Width  (m)                       5.000
   Height (m)                       4.000
   Initial Time Step (s)            0.079

 Grid Dimensions, Mesh     5

   Cells in the X Direction            50
   Cells in the Y Direction            50
   Cells in the Z Direction            30
   Number of Grid Cells             75000


 Physical Dimensions, Mesh     5

   Length (m)                       5.000
   Width  (m)                       5.000
   Height (m)                       3.000
   Initial Time Step (s)            0.079

 Grid Dimensions, Mesh     6

   Cells in the X Direction            50
   Cells in the Y Direction            50
   Cells in the Z Direction            40
   Number of Grid Cells            100000


 Physical Dimensions, Mesh     6

   Length (m)                       5.000
   Width  (m)                       5.000
   Height (m)                       4.000
   Initial Time Step (s)            0.079

 Grid Dimensions, Mesh     7

   Cells in the X Direction            50
   Cells in the Y Direction            50
   Cells in the Z Direction            30
   Number of Grid Cells             75000


 Physical Dimensions, Mesh     7

   Length (m)                       5.000
   Width  (m)                       5.000
   Height (m)                       3.000
   Initial Time Step (s)            0.079

 Grid Dimensions, Mesh     8

   Cells in the X Direction            50
   Cells in the Y Direction            50
   Cells in the Z Direction            40
   Number of Grid Cells            100000


 Physical Dimensions, Mesh     8

   Length (m)                       5.000
   Width  (m)                       5.000
   Height (m)                       4.000
   Initial Time Step (s)            0.079

 Total Number of Grid Cells        700000


 Maximum Cell Aspect Ratio          1.000
 CFL Velocity Norm                      2


 Miscellaneous Parameters

   Simulation Start Time (s)          0.0
   Simulation End Time (s)          180.0
   Background Pressure (Pa)     101325.00
   Ambient Temperature (C)          20.00

   3D Cartesian
   VLES Calculation
   Eddy Viscosity: Deardorff Model (C_DEARDORFF = 0.10)
   Surface INERT Eddy Viscosity: WALE Model (C_WALE = 0.60)
   Surface surf_concrete_wall_inside Eddy Viscosity: WALE Model (C_WALE = 0.60)
   Surface surf_concrete_wall_outside Eddy Viscosity: WALE Model (C_WALE = 0.60)
   Surface surf_fire Eddy Viscosity: WALE Model (C_WALE = 0.60)
   Turbulent Prandtl Number:         0.50
   Turbulent Schmidt Number:         0.50


 Background Stratification

      Z (m)     P_0 (Pa)    TMP_0 (C)
   ------------------------------------
        2.95    101290.41     20.00
        2.85    101291.59     20.00
        2.75    101292.76     20.00
        2.65    101293.93     20.00
        2.55    101295.10     20.00
        2.45    101296.27     20.00
        2.35    101297.44     20.00
        2.25    101298.62     20.00
        2.15    101299.79     20.00
        2.05    101300.96     20.00
        1.95    101302.13     20.00
        1.85    101303.30     20.00
        1.75    101304.48     20.00
        1.65    101305.65     20.00
        1.55    101306.82     20.00
        1.45    101307.99     20.00
        1.35    101309.16     20.00
        1.25    101310.34     20.00
        1.15    101311.51     20.00
        1.05    101312.68     20.00
        0.95    101313.85     20.00
        0.85    101315.02     20.00
        0.75    101316.20     20.00
        0.65    101317.37     20.00
        0.55    101318.54     20.00
        0.45    101319.71     20.00
        0.35    101320.88     20.00
        0.25    101322.06     20.00
        0.15    101323.23     20.00
        0.05    101324.40     20.00


 Mass Fraction Transformation Matrix to Convert Species Mixtures (Columns) to Primitive Species (Rows)

                         AIR       N-HEPTAN  PRODUCTS
   N-HEPTANE             0.000000  1.000000  0.000000
   NITROGEN              0.762470  0.000000  0.714485
   OXYGEN                0.230997  0.000000  0.000000
   CARBON DIOXIDE        0.000591  0.000000  0.187871
   WATER VAPOR           0.005941  0.000000  0.095945
   CARBON MONOXIDE       0.000000  0.000000  0.000000
   SOOT                  0.000000  0.000000  0.001699
   HYDROGEN              0.000000  0.000000  0.000000
   HYDROGEN CYANIDE      0.000000  0.000000  0.000000


 Primitive Species Information

   N-HEPTANE
   Gas Species
   Molecular Weight (g/mol)           100.20194
   Ambient Density (kg/m^3)            4.166
   Enthalpy of Formation (J/kg)       -1.87E+06

   NITROGEN
   Gas Species
   Molecular Weight (g/mol)            28.01340
   Ambient Density (kg/m^3)            1.165
   Enthalpy of Formation (J/kg)        0.00E+00

   OXYGEN
   Gas Species
   Molecular Weight (g/mol)            31.99880
   Ambient Density (kg/m^3)            1.330
   Enthalpy of Formation (J/kg)        0.00E+00

   CARBON DIOXIDE
   Gas Species
   Molecular Weight (g/mol)            44.00950
   Ambient Density (kg/m^3)            1.830
   Enthalpy of Formation (J/kg)       -8.94E+06

   WATER VAPOR
   Gas Species
   Molecular Weight (g/mol)            18.01528
   Ambient Density (kg/m^3)            0.749
   Enthalpy of Formation (J/kg)       -1.34E+07

   CARBON MONOXIDE
   Gas Species
   Molecular Weight (g/mol)            28.01010
   Ambient Density (kg/m^3)            1.164
   Enthalpy of Formation (J/kg)       -3.95E+06

   SOOT
   Gas Species
   Molecular Weight (g/mol)            10.91042
   Ambient Density (kg/m^3)            0.454
   Enthalpy of Formation (J/kg)        0.00E+00

   HYDROGEN
   Gas Species
   Molecular Weight (g/mol)             2.01588
   Ambient Density (kg/m^3)            0.084
   Enthalpy of Formation (J/kg)        0.00E+00

   HYDROGEN CYANIDE
   Gas Species
   Molecular Weight (g/mol)            27.02534
   Ambient Density (kg/m^3)            1.123
   Enthalpy of Formation (J/kg)        4.92E+06


 Tracked (Lumped) Species Information

   AIR
   Molecular Weight (g/mol)            28.75198
   Ambient Density (kg/m^3)            1.195
   Initial Mass Fraction               1.000
   Enthalpy of Formation (J/kg)     -8.50E+04

   Sub Species                    Mass Fraction     Mole Fraction
   NITROGEN                       7.624699E-01      7.825727E-01
   OXYGEN                         2.309974E-01      2.075588E-01
   CARBON DIOXIDE                 5.914650E-04      3.864118E-04
   WATER VAPOR                    5.941209E-03      9.482037E-03
 
     Viscosity (kg/m/s) Ambient,  293 K:  1.80E-05
                                  500 K:  2.61E-05
                                 1000 K:  4.13E-05
                                 1500 K:  5.37E-05
   Therm. Cond. (W/m/K) Ambient,  293 K:  2.56E-02
                                  500 K:  3.81E-02
                                 1000 K:  6.69E-02
                                 1500 K:  9.25E-02
        Enthalpy (J/kg) Ambient,  293 K: -9.01E+04
                                  500 K:  1.22E+05
                                 1000 K:  6.72E+05
                                 1500 K:  1.27E+06
    Spec. Heat (J/kg/K) Ambient,  293 K:  1.02E+03
                                  500 K:  1.04E+03
                                 1000 K:  1.16E+03
                                 1500 K:  1.23E+03
   Diff. Coeff. (m^2/s) Ambient,  293 K:  1.99E-05
                                  500 K:  4.96E-05
                                 1000 K:  1.58E-04
                                 1500 K:  3.09E-04

   N-HEPTANE
   Molecular Weight (g/mol)           100.20194
   Ambient Density (kg/m^3)            4.166
   Initial Mass Fraction               0.000
   Enthalpy of Formation (J/kg)     -1.87E+06

   Sub Species                    Mass Fraction     Mole Fraction
   N-HEPTANE                      1.000000E+00      1.000000E+00
 
     Viscosity (kg/m/s) Ambient,  293 K:  1.54E-05
                                  500 K:  2.45E-05
                                 1000 K:  4.11E-05
                                 1500 K:  5.41E-05
   Therm. Cond. (W/m/K) Ambient,  293 K:  3.02E-02
                                  500 K:  7.42E-02
                                 1000 K:  1.89E-01
                                 1500 K:  2.89E-01
        Enthalpy (J/kg) Ambient,  293 K: -1.88E+06
                                  500 K: -1.45E+06
                                 1000 K:  1.74E+05
                                 1500 K:  2.25E+06
    Spec. Heat (J/kg/K) Ambient,  293 K:  1.63E+03
                                  500 K:  2.52E+03
                                 1000 K:  3.81E+03
                                 1500 K:  4.43E+03
   Diff. Coeff. (m^2/s) Ambient,  293 K:  1.10E-05
                                  500 K:  2.83E-05
                                 1000 K:  9.18E-05
                                 1500 K:  1.80E-04

   PRODUCTS
   Molecular Weight (g/mol)            28.36438
   Ambient Density (kg/m^3)            1.179
   Initial Mass Fraction               0.000
   Enthalpy of Formation (J/kg)     -2.97E+06

   Sub Species                    Mass Fraction     Mole Fraction
   NITROGEN                       7.144853E-01      7.234372E-01
   CARBON DIOXIDE                 1.878706E-01      1.210837E-01
   WATER VAPOR                    9.594482E-02      1.510615E-01
   CARBON MONOXIDE                0.000000E+00      0.000000E+00
   SOOT                           1.699194E-03      4.417480E-03
   HYDROGEN CYANIDE               0.000000E+00      0.000000E+00
 
     Viscosity (kg/m/s) Ambient,  293 K:  1.62E-05
                                  500 K:  2.39E-05
                                 1000 K:  3.89E-05
                                 1500 K:  5.14E-05
   Therm. Cond. (W/m/K) Ambient,  293 K:  2.34E-02
                                  500 K:  3.62E-02
                                 1000 K:  6.70E-02
                                 1500 K:  9.59E-02
        Enthalpy (J/kg) Ambient,  293 K: -2.97E+06
                                  500 K: -2.74E+06
                                 1000 K: -2.14E+06
                                 1500 K: -1.46E+06
    Spec. Heat (J/kg/K) Ambient,  293 K:  1.08E+03
                                  500 K:  1.13E+03
                                 1000 K:  1.29E+03
                                 1500 K:  1.39E+03
   Diff. Coeff. (m^2/s) Ambient,  293 K:  1.95E-05
                                  500 K:  4.94E-05
                                 1000 K:  1.59E-04
                                 1500 K:  3.13E-04


 Gas Phase Reaction Information

      Fuel                                           Heat of Combustion (kJ/kg)
      N-HEPTANE                                                      44016.9032

      Primitive Species Stoich. Coeff.
      Species ID                                                          Molar
      N-HEPTANE                                                       -1.000000
      OXYGEN                                                         -10.770628
      CARBON DIOXIDE                                                   6.776827
      WATER VAPOR                                                      7.987602
      SOOT                                                             0.247969

      Tracked (Lumped) Species Stoich. Coeff.
      Species ID                                             Molar         Mass
      AIR                                               -51.891932   -14.889891
      N-HEPTANE                                          -1.000000    -1.000000
      PRODUCTS                                           56.133702    15.889891

      Reaction Kinetics

      Fast chemistry

      ODE Solver:  EXPLICIT EULER
      Extinction Model:  EXTINCTION 2
      Auto-Ignition Temperature (K):       0.0
      Critical Flame Temperature (K):   1770.2

      Prescribed Radiative Fraction:     0.400


 Material Information

   1 matl_concrete
     Emissivity                      0.900
     Density (kg/m3)                  24.0
     Specific Heat (kJ/kg/K)       1.05E+00
     Conductivity (W/m/K)          5.00E-01


 Surface Conditions

   0 INERT (DEFAULT)

   1 surf_concrete_wall_inside
     Material List
          1  matl_concrete
     Layer  1
        Thickness   (m):  0.10000
        Density (kg/m3):    24.00
        matl_concrete, Mass fraction:    1.00
     Total surface density     2.400 kg/m2
     Reaction products considered from the first  0.50 layers.
     Solid Phase Node, Layer, Coordinates(m):
                    0      1       0.0000000
                    1      1       0.0033333
                    2      1       0.0100000
                    3      1       0.0233333
                    4      1       0.0500000
                    5      1       0.0766667
                    6      1       0.0900000
                    7      1       0.0966667
                    8      1       0.1000000
     Exposed Backing

   2 surf_concrete_wall_outside
     Material List
          1  matl_concrete
     Layer  1
        Thickness   (m):  0.14000
        Density (kg/m3):    24.00
        matl_concrete, Mass fraction:    1.00
     Total surface density     3.360 kg/m2
     Solid Phase Node, Layer, Coordinates(m):
                    0      1       0.0000000
                    1      1       0.0030435
                    2      1       0.0091304
                    3      1       0.0213043
                    4      1       0.0456522
                    5      1       0.0943478
                    6      1       0.1186957
                    7      1       0.1308696
                    8      1       0.1369565
                    9      1       0.1400000
     Backing to void

   3 surf_fire
     HRR Per Unit Area (kW/m2)         93.8
     N-HEPTANE Mass Flux (kg/s/m2)   2.13E-03

   4 OPEN
     Passive Vent to Atmosphere

   5 MIRROR
     Symmetry Plane

   6 INTERPOLATED

   7 PERIODIC

   8 HVAC

   9 MASSLESS TRACER

  10 DROPLET

  11 MASSLESS TARGET

  12 PERIODIC FLOW ONLY


 Lagrangian Particle Classes


 Cut-off Density and Temperature

    Minimum Temperature:   -10.0 C
    Maximum Temperature:  2726.8 C
    Minimum Density:  1.195E-01 kg/m3
    Maximum Density:  9.281E+00 kg/m3


 Slice File Information, Mesh     1

   1 Nodes:   0  50   0  50  21  21, Quantity: TEMPERATURE
   2 Nodes:   0  50   0  50  21  21, Quantity: SOOT VISIBILITY
   3 Nodes:   0  50   0  50  21  21, Quantity: SOOT EXTINCTION COEFFICIENT


 Slice File Information, Mesh     2

   1 Nodes:   0  50   0  50  21  21, Quantity: TEMPERATURE
   2 Nodes:   0  50   0  50  21  21, Quantity: SOOT VISIBILITY
   3 Nodes:   0  50   0  50  21  21, Quantity: SOOT EXTINCTION COEFFICIENT


 Radiation Model Information

   Number of control angles  104
   Time step increment         3
   Angle increment             5
   Theta band N_phi   Solid angle
     1:        4     0.120
     2:       12     0.114
     3:       16     0.127
     4:       20     0.120
     5:       20     0.120
     6:       16     0.127
     7:       12     0.114
     8:        4     0.120
   Using gray gas absorption.
   Mean beam length  1.000E-01 m
 
 

 Run Time Diagnostics

       Time Step       1   October 10, 2022  09:10:06
       Step Size:    0.791E-01 s, Total Time:       0.08 s
       Pressure Iterations: 1
       Maximum Velocity Error:  0.34E-02 on Mesh 1 at (50,46,30)
       Maximum Pressure Error:  0.61E-02 on Mesh 6 at (34,5,1)
       ---------------------------------------------------------------
       Mesh    1
       Max CFL number:  0.20E-01 at (33,6,9)
       Max divergence:  0.18E-05 at (41,42,2)
       Min divergence: -0.21E-05 at (17,29,29)
       Max VN number:   0.34E-01 at (30,46,28)
       Mesh    2
       Max CFL number:  0.20E-01 at (21,45,36)
       Max divergence:  0.19E-05 at (3,37,2)
       Min divergence: -0.20E-05 at (31,38,39)
       Max VN number:   0.27E-01 at (38,49,1)
       Radiation Loss to Boundaries:        -0.003 kW
       Mesh    3
       Max CFL number:  0.20E-01 at (21,5,24)
       Max divergence:  0.18E-05 at (3,35,2)
       Min divergence: -0.20E-05 at (22,36,29)
       Max VN number:   0.22E-01 at (23,38,30)
       Radiation Loss to Boundaries:        -0.003 kW
       Mesh    4
       Max CFL number:  0.21E-01 at (44,6,10)
       Max divergence:  0.19E-05 at (33,10,2)
       Min divergence: -0.20E-05 at (14,38,39)
       Max VN number:   0.23E-01 at (14,30,40)
       Radiation Loss to Boundaries:        -0.003 kW
       Mesh    5
       Max CFL number:  0.21E-01 at (19,11,28)
       Max divergence:  0.17E-05 at (6,44,2)
       Min divergence: -0.21E-05 at (31,43,29)
       Max VN number:   0.28E-01 at (46,48,16)
       Radiation Loss to Boundaries:        -0.001 kW
       Mesh    6
       Max CFL number:  0.20E-01 at (12,39,30)
       Max divergence:  0.20E-05 at (3,5,2)
       Min divergence: -0.96E-03 at (18,7,1)
       Max VN number:   0.24E-01 at (50,2,11)
       Radiation Loss to Boundaries:        -0.003 kW
       Mesh    7
       Max CFL number:  0.21E-01 at (34,41,2)
       Max divergence:  0.17E-05 at (10,49,2)
       Min divergence: -0.19E-05 at (3,4,29)
       Max VN number:   0.23E-01 at (36,50,13)
       Radiation Loss to Boundaries:        -0.003 kW
       Mesh    8
       Max CFL number:  0.20E-01 at (3,40,6)
       Max divergence:  0.19E-05 at (26,7,2)
       Min divergence: -0.19E-05 at (11,49,39)
       Max VN number:   0.22E-01 at (30,48,40)
       Radiation Loss to Boundaries:        -0.003 kW
 
       Time Step       2   October 10, 2022  09:10:07
       Step Size:    0.791E-01 s, Total Time:       0.16 s
       Pressure Iterations: 1
       Maximum Velocity Error:  0.25E-02 on Mesh 2 at (50,1,1)
       Maximum Pressure Error:  0.61E+01 on Mesh 6 at (20,9,1)
       ---------------------------------------------------------------
       Mesh    1
       Max CFL number:  0.20E-01 at (33,6,9)
       Max divergence:  0.18E-05 at (41,42,2)
       Min divergence: -0.21E-05 at (17,29,29)
       Max VN number:   0.28E-01 at (49,3,15)
       Mesh    2
       Max CFL number:  0.20E-01 at (21,45,36)
       Max divergence:  0.19E-05 at (3,37,2)
       Min divergence: -0.20E-05 at (31,38,39)
       Max VN number:   0.27E-01 at (38,49,1)
       Radiation Loss to Boundaries:        -0.003 kW
       Mesh    3
       Max CFL number:  0.20E-01 at (21,5,24)
       Max divergence:  0.18E-05 at (3,35,2)
       Min divergence: -0.20E-05 at (22,36,29)
       Max VN number:   0.22E-01 at (23,38,30)
       Radiation Loss to Boundaries:        -0.003 kW
       Mesh    4
       Max CFL number:  0.20E-01 at (44,6,10)
       Max divergence:  0.19E-05 at (33,10,2)
       Min divergence: -0.20E-05 at (14,38,39)
       Max VN number:   0.22E-01 at (14,30,40)
       Radiation Loss to Boundaries:        -0.003 kW
       Mesh    5
       Max CFL number:  0.20E-01 at (19,11,28)
       Max divergence:  0.17E-05 at (6,44,2)
       Min divergence: -0.21E-05 at (31,43,29)
       Max VN number:   0.28E-01 at (20,32,13)
       Radiation Loss to Boundaries:        -0.001 kW
       Mesh    6
       Max CFL number:  0.20E-01 at (12,39,30)
       Max divergence:  0.13E+00 at (33,5,1)
       Min divergence: -0.20E-05 at (38,7,39)
       Max VN number:   0.24E-01 at (50,2,11)
       Total Heat Release Rate:              7.515 kW
       Radiation Loss to Boundaries:        -0.003 kW
       Mesh    7
       Max CFL number:  0.21E-01 at (34,41,2)
       Max divergence:  0.17E-05 at (10,49,2)
       Min divergence: -0.19E-05 at (3,4,29)
       Max VN number:   0.23E-01 at (36,50,13)
       Radiation Loss to Boundaries:        -0.003 kW
       Mesh    8
       Max CFL number:  0.20E-01 at (3,40,6)
       Max divergence:  0.19E-05 at (26,7,2)
       Min divergence: -0.19E-05 at (11,49,39)
       Max VN number:   0.22E-01 at (30,48,40)
       Radiation Loss to Boundaries:        -0.003 kW
 
       Time Step       3   October 10, 2022  09:10:08
       Step Size:    0.791E-01 s, Total Time:       0.24 s
       Pressure Iterations: 1
       Maximum Velocity Error:  0.49E-02 on Mesh 2 at (50,2,1)
       Maximum Pressure Error:  0.22E+00 on Mesh 6 at (25,4,1)
       ---------------------------------------------------------------
       Mesh    1
       Max CFL number:  0.20E-01 at (33,6,9)
       Max divergence:  0.18E-05 at (41,42,2)
       Min divergence: -0.21E-05 at (17,29,29)
       Max VN number:   0.28E-01 at (49,3,15)
       Mesh    2
       Max CFL number:  0.20E-01 at (21,45,36)
       Max divergence:  0.19E-05 at (3,37,2)
       Min divergence: -0.20E-05 at (31,38,39)
       Max VN number:   0.27E-01 at (38,49,1)
       Radiation Loss to Boundaries:        -0.002 kW
       Mesh    3
       Max CFL number:  0.20E-01 at (21,5,24)
       Max divergence:  0.18E-05 at (3,35,2)
       Min divergence: -0.20E-05 at (22,36,29)
       Max VN number:   0.22E-01 at (23,38,30)
       Radiation Loss to Boundaries:        -0.002 kW
       Mesh    4
       Max CFL number:  0.20E-01 at (39,3,2)
       Max divergence:  0.19E-05 at (33,10,2)
       Min divergence: -0.20E-05 at (14,38,39)
       Max VN number:   0.22E-01 at (14,30,40)
       Radiation Loss to Boundaries:        -0.002 kW
       Mesh    5
       Max CFL number:  0.20E-01 at (19,11,28)
       Max divergence:  0.17E-05 at (6,44,2)
       Min divergence: -0.21E-05 at (31,43,29)
       Max VN number:   0.28E-01 at (20,32,13)
       Mesh    6
       Max CFL number:  0.31E-01 at (17,7,1)
       Max divergence:  0.26E+00 at (17,6,1)
       Min divergence: -0.19E-05 at (35,22,39)
       Max VN number:   0.26E-01 at (22,13,1)
       Total Heat Release Rate:             16.744 kW
       Radiation Loss to Boundaries:        -1.522 kW
       Mesh    7
       Max CFL number:  0.21E-01 at (34,41,2)
       Max divergence:  0.17E-05 at (10,49,2)
       Min divergence: -0.19E-05 at (3,4,29)
       Max VN number:   0.23E-01 at (36,50,13)
       Radiation Loss to Boundaries:        -0.002 kW
       Mesh    8
       Max CFL number:  0.20E-01 at (3,40,6)
       Max divergence:  0.19E-05 at (26,7,2)
       Min divergence: -0.19E-05 at (11,49,39)
       Max VN number:   0.22E-01 at (30,48,40)
       Radiation Loss to Boundaries:        -0.002 kW
 
       Time Step       4   October 10, 2022  09:10:08
       Step Size:    0.791E-01 s, Total Time:       0.32 s
       Pressure Iterations: 1
       Maximum Velocity Error:  0.72E-02 on Mesh 2 at (50,1,1)
       Maximum Pressure Error:  0.20E+01 on Mesh 6 at (25,4,1)
       ---------------------------------------------------------------
       Mesh    1
       Max CFL number:  0.20E-01 at (33,6,9)
       Max divergence:  0.18E-05 at (41,42,2)
       Min divergence: -0.21E-05 at (17,29,29)
       Max VN number:   0.28E-01 at (49,3,15)
       Mesh    2
       Max CFL number:  0.20E-01 at (21,45,36)
       Max divergence:  0.19E-05 at (3,37,2)
       Min divergence: -0.20E-05 at (31,38,39)
       Max VN number:   0.27E-01 at (38,49,1)
       Radiation Loss to Boundaries:        -0.002 kW
       Mesh    3
       Max CFL number:  0.20E-01 at (21,5,24)
       Max divergence:  0.18E-05 at (3,35,2)
       Min divergence: -0.20E-05 at (22,36,29)
       Max VN number:   0.22E-01 at (23,38,30)
       Radiation Loss to Boundaries:        -0.002 kW
       Mesh    4
       Max CFL number:  0.20E-01 at (39,3,2)
       Max divergence:  0.19E-05 at (33,10,2)
       Min divergence: -0.20E-05 at (14,38,39)
       Max VN number:   0.22E-01 at (14,30,40)
       Radiation Loss to Boundaries:        -0.002 kW
       Mesh    5
       Max CFL number:  0.20E-01 at (19,11,28)
       Max divergence:  0.17E-05 at (6,44,2)
       Min divergence: -0.21E-05 at (31,43,29)
       Max VN number:   0.28E-01 at (20,32,13)
       Mesh    6
       Max CFL number:  0.51E-01 at (28,11,1)
       Max divergence:  0.41E+00 at (25,4,1)
       Min divergence: -0.19E-05 at (35,22,39)
       Max VN number:   0.32E-01 at (22,13,1)
       Total Heat Release Rate:             26.809 kW
       Radiation Loss to Boundaries:        -2.712 kW
       Mesh    7
       Max CFL number:  0.21E-01 at (34,41,2)
       Max divergence:  0.17E-05 at (10,49,2)
       Min divergence: -0.19E-05 at (3,4,29)
       Max VN number:   0.23E-01 at (36,50,13)
       Radiation Loss to Boundaries:        -0.002 kW
       Mesh    8
       Max CFL number:  0.20E-01 at (3,40,6)
       Max divergence:  0.19E-05 at (26,7,2)
       Min divergence: -0.19E-05 at (11,49,39)
       Max VN number:   0.22E-01 at (30,48,40)
       Radiation Loss to Boundaries:        -0.002 kW
 
       Time Step       5   October 10, 2022  09:10:09
       Step Size:    0.791E-01 s, Total Time:       0.40 s
       Pressure Iterations: 1
       Maximum Velocity Error:  0.91E-02 on Mesh 6 at (0,1,1)
       Maximum Pressure Error:  0.14E+00 on Mesh 6 at (34,4,1)
       ---------------------------------------------------------------
       Mesh    1
       Max CFL number:  0.20E-01 at (33,6,9)
       Max divergence:  0.18E-05 at (41,42,2)
       Min divergence: -0.21E-05 at (17,29,29)
       Max VN number:   0.28E-01 at (49,3,15)
       Mesh    2
       Max CFL number:  0.20E-01 at (21,45,36)
       Max divergence:  0.19E-05 at (3,37,2)
       Min divergence: -0.20E-05 at (31,38,39)
       Max VN number:   0.27E-01 at (38,49,1)
       Radiation Loss to Boundaries:        -0.002 kW
       Mesh    3
       Max CFL number:  0.20E-01 at (21,5,24)
       Max divergence:  0.18E-05 at (3,35,2)
       Min divergence: -0.20E-05 at (22,36,29)
       Max VN number:   0.22E-01 at (23,38,30)
       Radiation Loss to Boundaries:        -0.002 kW
       Mesh    4
       Max CFL number:  0.20E-01 at (39,3,2)
       Max divergence:  0.19E-05 at (33,10,2)
       Min divergence: -0.20E-05 at (14,38,39)
       Max VN number:   0.22E-01 at (14,30,40)
       Radiation Loss to Boundaries:        -0.002 kW
       Mesh    5
       Max CFL number:  0.20E-01 at (19,11,28)
       Max divergence:  0.17E-05 at (6,44,2)
       Min divergence: -0.21E-05 at (31,43,29)
       Max VN number:   0.28E-01 at (20,32,13)
       Mesh    6
       Max CFL number:  0.73E-01 at (28,11,1)
       Max divergence:  0.55E+00 at (21,11,1)
       Min divergence: -0.19E-05 at (35,22,39)
       Max VN number:   0.30E-01 at (24,3,1)
       Total Heat Release Rate:             37.157 kW
       Radiation Loss to Boundaries:        -4.052 kW
       Mesh    7
       Max CFL number:  0.21E-01 at (34,41,2)
       Max divergence:  0.17E-05 at (10,49,2)
       Min divergence: -0.19E-05 at (3,4,29)
       Max VN number:   0.23E-01 at (36,50,13)
       Radiation Loss to Boundaries:        -0.002 kW
       Mesh    8
       Max CFL number:  0.20E-01 at (3,40,6)
       Max divergence:  0.19E-05 at (26,7,2)
       Min divergence: -0.19E-05 at (11,49,39)
       Max VN number:   0.22E-01 at (30,48,40)
       Radiation Loss to Boundaries:        -0.002 kW
 
       Time Step       6   October 10, 2022  09:10:10
       Step Size:    0.791E-01 s, Total Time:       0.47 s
       Pressure Iterations: 1
       Maximum Velocity Error:  0.10E-01 on Mesh 2 at (50,1,1)
       Maximum Pressure Error:  0.49E+00 on Mesh 6 at (30,9,1)
       ---------------------------------------------------------------
       Mesh    1
       Max CFL number:  0.20E-01 at (33,6,9)
       Max divergence:  0.18E-05 at (41,42,2)
       Min divergence: -0.21E-05 at (17,29,29)
       Max VN number:   0.28E-01 at (49,3,15)
       Mesh    2
       Max CFL number:  0.20E-01 at (21,45,36)
       Max divergence:  0.19E-05 at (3,37,2)
       Min divergence: -0.20E-05 at (31,38,39)
       Max VN number:   0.27E-01 at (38,49,1)
       Radiation Loss to Boundaries:        -0.002 kW
       Mesh    3
       Max CFL number:  0.20E-01 at (21,5,24)
       Max divergence:  0.18E-05 at (3,35,2)
       Min divergence: -0.19E-05 at (22,36,29)
       Max VN number:   0.22E-01 at (23,38,30)
       Radiation Loss to Boundaries:        -0.002 kW
       Mesh    4
       Max CFL number:  0.20E-01 at (39,3,2)
       Max divergence:  0.19E-05 at (33,10,2)
       Min divergence: -0.20E-05 at (14,38,39)
       Max VN number:   0.22E-01 at (14,30,40)
       Radiation Loss to Boundaries:        -0.001 kW
       Mesh    5
       Max CFL number:  0.20E-01 at (19,11,28)
       Max divergence:  0.17E-05 at (6,44,2)
       Min divergence: -0.21E-05 at (31,43,29)
       Max VN number:   0.28E-01 at (20,32,13)
       Mesh    6
       Max CFL number:  0.97E-01 at (28,11,1)
       Max divergence:  0.68E+00 at (17,8,1)
       Min divergence: -0.18E-05 at (35,22,39)
       Max VN number:   0.43E-01 at (24,3,1)
       Total Heat Release Rate:             47.429 kW
       Radiation Loss to Boundaries:        -5.223 kW
       Mesh    7
       Max CFL number:  0.21E-01 at (34,41,2)
       Max divergence:  0.17E-05 at (10,49,2)
       Min divergence: -0.19E-05 at (48,19,29)
       Max VN number:   0.23E-01 at (36,50,13)
       Radiation Loss to Boundaries:        -0.002 kW
       Mesh    8
       Max CFL number:  0.20E-01 at (3,40,6)
       Max divergence:  0.19E-05 at (26,7,2)
       Min divergence: -0.19E-05 at (11,49,39)
       Max VN number:   0.22E-01 at (39,35,1)
       Radiation Loss to Boundaries:        -0.002 kW
 
       Time Step       7   October 10, 2022  09:10:10
       Step Size:    0.791E-01 s, Total Time:       0.55 s
       Pressure Iterations: 1
       Maximum Velocity Error:  0.11E-01 on Mesh 2 at (50,1,1)
       Maximum Pressure Error:  0.64E+01 on Mesh 6 at (25,4,1)
       ---------------------------------------------------------------
       Mesh    1
       Max CFL number:  0.20E-01 at (33,6,9)
       Max divergence:  0.18E-05 at (41,42,2)
       Min divergence: -0.20E-05 at (17,29,29)
       Max VN number:   0.28E-01 at (49,3,15)
       Mesh    2
       Max CFL number:  0.20E-01 at (21,45,36)
       Max divergence:  0.19E-05 at (3,37,2)
       Min divergence: -0.20E-05 at (31,38,39)
       Max VN number:   0.27E-01 at (38,49,1)
       Radiation Loss to Boundaries:        -0.002 kW
       Mesh    3
       Max CFL number:  0.20E-01 at (21,5,24)
       Max divergence:  0.18E-05 at (3,35,2)
       Min divergence: -0.19E-05 at (22,36,29)
       Max VN number:   0.22E-01 at (23,38,30)
       Radiation Loss to Boundaries:        -0.002 kW
       Mesh    4
       Max CFL number:  0.20E-01 at (39,3,2)
       Max divergence:  0.19E-05 at (33,10,2)
       Min divergence: -0.20E-05 at (14,38,39)
       Max VN number:   0.22E-01 at (14,30,40)
       Radiation Loss to Boundaries:        -0.001 kW
       Mesh    5
       Max CFL number:  0.20E-01 at (19,11,28)
       Max divergence:  0.17E-05 at (6,44,2)
       Min divergence: -0.21E-05 at (31,43,29)
       Max VN number:   0.27E-01 at (20,32,13)
       Mesh    6
       Max CFL number:  0.12E+00 at (28,11,1)
       Max divergence:  0.78E+00 at (17,8,1)
       Min divergence: -0.18E-05 at (35,22,39)
       Max VN number:   0.61E-01 at (24,3,1)
       Total Heat Release Rate:             57.389 kW
       Radiation Loss to Boundaries:        -8.199 kW
       Mesh    7
       Max CFL number:  0.21E-01 at (34,41,2)
       Max divergence:  0.17E-05 at (10,49,2)
       Min divergence: -0.19E-05 at (48,19,29)
       Max VN number:   0.23E-01 at (36,50,13)
       Radiation Loss to Boundaries:        -0.002 kW
       Mesh    8
       Max CFL number:  0.20E-01 at (3,40,6)
       Max divergence:  0.19E-05 at (26,7,2)
       Min divergence: -0.19E-05 at (11,49,39)
       Max VN number:   0.22E-01 at (39,35,1)
       Radiation Loss to Boundaries:        -0.002 kW
 
       Time Step       8   October 10, 2022  09:10:11
       Step Size:    0.791E-01 s, Total Time:       0.63 s
       Pressure Iterations: 1
       Maximum Velocity Error:  0.86E-02 on Mesh 2 at (50,1,2)
       Maximum Pressure Error:  0.16E+02 on Mesh 6 at (23,11,1)
       ---------------------------------------------------------------
       Mesh    1
       Max CFL number:  0.20E-01 at (33,6,9)
       Max divergence:  0.18E-05 at (41,42,2)
       Min divergence: -0.20E-05 at (17,29,29)
       Max VN number:   0.28E-01 at (49,3,15)
       Mesh    2
       Max CFL number:  0.20E-01 at (21,45,36)
       Max divergence:  0.19E-05 at (3,37,2)
       Min divergence: -0.20E-05 at (31,38,39)
       Max VN number:   0.27E-01 at (38,49,1)
       Radiation Loss to Boundaries:        -0.002 kW
       Mesh    3
       Max CFL number:  0.20E-01 at (21,5,24)
       Max divergence:  0.18E-05 at (3,35,2)
       Min divergence: -0.19E-05 at (22,36,29)
       Max VN number:   0.22E-01 at (23,38,30)
       Radiation Loss to Boundaries:        -0.002 kW
       Mesh    4
       Max CFL number:  0.20E-01 at (39,3,2)
       Max divergence:  0.19E-05 at (33,10,2)
       Min divergence: -0.20E-05 at (14,38,39)
       Max VN number:   0.21E-01 at (14,30,40)
       Radiation Loss to Boundaries:        -0.001 kW
       Mesh    5
       Max CFL number:  0.20E-01 at (19,11,28)
       Max divergence:  0.17E-05 at (6,44,2)
       Min divergence: -0.21E-05 at (31,43,29)
       Max VN number:   0.27E-01 at (20,32,13)
       Mesh    6
       Max CFL number:  0.15E+00 at (15,11,1)
       Max divergence:  0.83E+00 at (17,8,1)
       Min divergence: -0.18E-05 at (35,22,39)
       Max VN number:   0.88E-01 at (14,8,1)
       Total Heat Release Rate:             66.878 kW
       Radiation Loss to Boundaries:       -15.701 kW
       Mesh    7
       Max CFL number:  0.20E-01 at (34,41,2)
       Max divergence:  0.17E-05 at (10,49,2)
       Min divergence: -0.19E-05 at (48,19,29)
       Max VN number:   0.23E-01 at (36,50,13)
       Radiation Loss to Boundaries:        -0.002 kW
       Mesh    8
       Max CFL number:  0.20E-01 at (3,40,6)
       Max divergence:  0.19E-05 at (26,7,2)
       Min divergence: -0.19E-05 at (11,49,39)
       Max VN number:   0.22E-01 at (39,35,1)
       Radiation Loss to Boundaries:        -0.002 kW
 
       Time Step       9   October 10, 2022  09:10:12
       Step Size:    0.791E-01 s, Total Time:       0.71 s
       Pressure Iterations: 1
       Maximum Velocity Error:  0.68E-02 on Mesh 2 at (50,1,10)
       Maximum Pressure Error:  0.55E+01 on Mesh 6 at (26,8,1)
       ---------------------------------------------------------------
       Mesh    1
       Max CFL number:  0.20E-01 at (33,6,9)
       Max divergence:  0.18E-05 at (41,42,2)
       Min divergence: -0.20E-05 at (17,29,29)
       Max VN number:   0.28E-01 at (49,3,15)
       Mesh    2
       Max CFL number:  0.20E-01 at (21,45,36)
       Max divergence:  0.19E-05 at (3,37,2)
       Min divergence: -0.20E-05 at (31,38,39)
       Max VN number:   0.27E-01 at (38,49,1)
       Radiation Loss to Boundaries:        -0.001 kW
       Mesh    3
       Max CFL number:  0.20E-01 at (21,5,24)
       Max divergence:  0.18E-05 at (3,35,2)
       Min divergence: -0.19E-05 at (22,36,29)
       Max VN number:   0.21E-01 at (23,38,30)
       Radiation Loss to Boundaries:        -0.001 kW
       Mesh    4
       Max CFL number:  0.20E-01 at (39,3,2)
       Max divergence:  0.19E-05 at (33,10,2)
       Min divergence: -0.20E-05 at (14,38,39)
       Max VN number:   0.21E-01 at (14,30,40)
       Radiation Loss to Boundaries:        -0.001 kW
       Mesh    5
       Max CFL number:  0.20E-01 at (16,20,18)
       Max divergence:  0.17E-05 at (6,44,2)
       Min divergence: -0.21E-05 at (31,43,29)
       Max VN number:   0.27E-01 at (20,32,13)
       Mesh    6
       Max CFL number:  0.19E+00 at (34,4,1)
       Max divergence:  0.83E+00 at (17,8,1)
       Min divergence: -0.14E-05 at (38,7,39)
       Max VN number:   0.11E+00 at (14,6,1)
       Total Heat Release Rate:             75.794 kW
       Radiation Loss to Boundaries:       -21.850 kW
       Mesh    7
       Max CFL number:  0.20E-01 at (34,41,2)
       Max divergence:  0.17E-05 at (17,4,2)
       Min divergence: -0.18E-05 at (48,19,29)
       Max VN number:   0.23E-01 at (36,50,13)
       Radiation Loss to Boundaries:        -0.001 kW
       Mesh    8
       Max CFL number:  0.20E-01 at (3,40,6)
       Max divergence:  0.19E-05 at (26,7,2)
       Min divergence: -0.19E-05 at (11,49,39)
       Max VN number:   0.22E-01 at (39,35,1)
       Radiation Loss to Boundaries:        -0.001 kW
 
       Time Step      10   October 10, 2022  09:10:12
       Step Size:    0.791E-01 s, Total Time:       0.79 s
       Pressure Iterations: 1
       Maximum Velocity Error:  0.51E-02 on Mesh 2 at (50,1,20)
       Maximum Pressure Error:  0.17E+02 on Mesh 6 at (25,4,1)
       ---------------------------------------------------------------
       Mesh    1
       Max CFL number:  0.20E-01 at (33,6,9)
       Max divergence:  0.18E-05 at (41,42,2)
       Min divergence: -0.20E-05 at (17,29,29)
       Max VN number:   0.28E-01 at (49,3,15)
       Mesh    2
       Max CFL number:  0.20E-01 at (21,45,36)
       Max divergence:  0.19E-05 at (3,37,2)
       Min divergence: -0.20E-05 at (31,38,39)
       Max VN number:   0.27E-01 at (38,49,1)
       Radiation Loss to Boundaries:        -0.001 kW
       Mesh    3
       Max CFL number:  0.20E-01 at (21,5,24)
       Max divergence:  0.18E-05 at (3,35,2)
       Min divergence: -0.19E-05 at (22,36,29)
       Max VN number:   0.21E-01 at (23,38,30)
       Radiation Loss to Boundaries:        -0.001 kW
       Mesh    4
       Max CFL number:  0.20E-01 at (39,3,2)
       Max divergence:  0.19E-05 at (33,10,2)
       Min divergence: -0.20E-05 at (14,38,39)
       Max VN number:   0.21E-01 at (14,30,40)
       Radiation Loss to Boundaries:        -0.001 kW
       Mesh    5
       Max CFL number:  0.20E-01 at (16,20,18)
       Max divergence:  0.17E-05 at (6,44,2)
       Min divergence: -0.21E-05 at (31,43,29)
       Max VN number:   0.27E-01 at (20,32,13)
       Mesh    6
       Max CFL number:  0.25E+00 at (34,4,1)
       Max divergence:  0.76E+00 at (22,7,1)
       Min divergence: -0.14E-05 at (38,7,39)
       Max VN number:   0.63E-01 at (34,4,2)
       Total Heat Release Rate:             84.076 kW
       Radiation Loss to Boundaries:       -31.480 kW
       Mesh    7
       Max CFL number:  0.20E-01 at (34,41,2)
       Max divergence:  0.17E-05 at (17,4,2)
       Min divergence: -0.18E-05 at (48,19,29)
       Max VN number:   0.23E-01 at (36,50,13)
       Radiation Loss to Boundaries:        -0.001 kW
       Mesh    8
       Max CFL number:  0.20E-01 at (3,40,6)
       Max divergence:  0.19E-05 at (26,7,2)
       Min divergence: -0.19E-05 at (11,49,39)
       Max VN number:   0.22E-01 at (39,35,1)
       Radiation Loss to Boundaries:        -0.001 kW
 
       Time Step      20   October 10, 2022  09:10:19
       Step Size:    0.683E-01 s, Total Time:       1.55 s
       Pressure Iterations: 1
       Maximum Velocity Error:  0.30E-02 on Mesh 2 at (50,50,40)
       Maximum Pressure Error:  0.43E+02 on Mesh 6 at (25,7,1)
       ---------------------------------------------------------------
       Mesh    1
       Max CFL number:  0.17E-01 at (33,6,9)
       Max divergence:  0.18E-05 at (41,42,2)
       Min divergence: -0.20E-05 at (17,29,29)
       Max VN number:   0.24E-01 at (49,3,15)
       Mesh    2
       Max CFL number:  0.20E-01 at (49,5,12)
       Max divergence:  0.42E-05 at (50,12,15)
       Min divergence: -0.19E-05 at (31,38,39)
       Max VN number:   0.22E-01 at (38,49,1)
       Radiation Loss to Boundaries:         0.005 kW
       Mesh    3
       Max CFL number:  0.17E-01 at (21,5,24)
       Max divergence:  0.18E-05 at (3,35,2)
       Min divergence: -0.19E-05 at (22,36,29)
       Max VN number:   0.18E-01 at (23,38,30)
       Mesh    4
       Max CFL number:  0.17E-01 at (39,3,2)
       Max divergence:  0.19E-05 at (33,10,2)
       Min divergence: -0.20E-05 at (14,38,39)
       Max VN number:   0.18E-01 at (40,3,40)
       Mesh    5
       Max CFL number:  0.17E-01 at (16,20,18)
       Max divergence:  0.17E-05 at (15,19,2)
       Min divergence: -0.21E-05 at (31,43,29)
       Max VN number:   0.23E-01 at (20,32,13)
       Mesh    6
       Max CFL number:  0.99E+00 at (16,6,1)
       Max divergence:  0.14E+01 at (33,10,1)
       Min divergence: -0.47E+00 at (17,7,3)
       Max VN number:   0.69E+00 at (30,4,1)
       Total Heat Release Rate:            134.265 kW
       Radiation Loss to Boundaries:       -58.530 kW
       Mesh    7
       Max CFL number:  0.17E-01 at (34,41,2)
       Max divergence:  0.17E-05 at (17,4,2)
       Min divergence: -0.18E-05 at (48,19,29)
       Max VN number:   0.20E-01 at (36,50,13)
       Mesh    8
       Max CFL number:  0.17E-01 at (34,50,22)
       Max divergence:  0.22E-05 at (6,1,10)
       Min divergence: -0.18E-05 at (11,49,39)
       Max VN number:   0.20E-01 at (39,35,1)
 
       Time Step      30   October 10, 2022  09:10:30
       Step Size:    0.299E-01 s, Total Time:       1.99 s
       Pressure Iterations: 1
       Maximum Velocity Error:  0.29E-02 on Mesh 2 at (50,1,28)
       Maximum Pressure Error:  0.84E+02 on Mesh 6 at (30,8,6)
       ---------------------------------------------------------------
       Mesh    1
       Max CFL number:  0.73E-02 at (33,6,9)
       Max divergence:  0.18E-05 at (41,42,2)
       Min divergence: -0.20E-05 at (17,29,29)
       Max VN number:   0.11E-01 at (49,3,15)
       Mesh    2
       Max CFL number:  0.92E-02 at (49,5,12)
       Max divergence:  0.19E-03 at (50,21,6)
       Min divergence: -0.17E-05 at (12,9,39)
       Max VN number:   0.94E-02 at (38,49,1)
       Radiation Loss to Boundaries:         0.508 kW
       Mesh    3
       Max CFL number:  0.72E-02 at (21,5,24)
       Max divergence:  0.17E-05 at (10,24,2)
       Min divergence: -0.19E-05 at (22,36,29)
       Max VN number:   0.78E-02 at (23,38,30)
       Mesh    4
       Max CFL number:  0.78E-02 at (39,3,2)
       Max divergence:  0.19E-05 at (33,10,2)
       Min divergence: -0.19E-05 at (14,38,39)
       Max VN number:   0.80E-02 at (40,3,40)
       Mesh    5
       Max CFL number:  0.73E-02 at (49,36,21)
       Max divergence:  0.17E-05 at (15,19,2)
       Min divergence: -0.21E-05 at (31,43,29)
       Max VN number:   0.99E-02 at (20,32,13)
       Mesh    6
       Max CFL number:  0.88E+00 at (30,7,3)
       Max divergence:  0.17E+01 at (20,6,1)
       Min divergence: -0.13E+01 at (30,8,6)
       Max VN number:   0.30E+00 at (30,8,5)
       Total Heat Release Rate:            147.932 kW
       Radiation Loss to Boundaries:       -45.642 kW
       Mesh    7
       Max CFL number:  0.71E-02 at (10,16,27)
       Max divergence:  0.17E-05 at (39,13,2)
       Min divergence: -0.18E-05 at (48,19,29)
       Max VN number:   0.85E-02 at (36,50,13)
       Mesh    8
       Max CFL number:  0.16E-01 at (34,50,22)
       Max divergence:  0.64E-04 at (49,1,10)
       Min divergence: -0.16E-05 at (27,49,39)
       Max VN number:   0.87E-02 at (39,35,1)
       Radiation Loss to Boundaries:         0.242 kW
 
       Time Step      40   October 10, 2022  09:10:44
       Step Size:    0.264E-01 s, Total Time:       2.27 s
       Pressure Iterations: 1
       Maximum Velocity Error:  0.26E-02 on Mesh 2 at (1,50,40)
       Maximum Pressure Error:  0.55E+02 on Mesh 6 at (28,7,7)
       ---------------------------------------------------------------
       Mesh    1
       Max CFL number:  0.64E-02 at (33,6,9)
       Max divergence:  0.18E-05 at (41,42,2)
       Min divergence: -0.20E-05 at (17,29,29)
       Max VN number:   0.93E-02 at (49,3,15)
       Mesh    2
       Max CFL number:  0.94E-02 at (1,35,21)
       Max divergence:  0.35E-03 at (50,4,6)
       Min divergence: -0.75E-06 at (3,41,2)
       Max VN number:   0.83E-02 at (38,49,1)
       Radiation Loss to Boundaries:         1.090 kW
       Mesh    3
       Max CFL number:  0.63E-02 at (21,5,24)
       Max divergence:  0.17E-05 at (10,24,2)
       Min divergence: -0.18E-05 at (22,36,29)
       Max VN number:   0.68E-02 at (23,38,30)
       Mesh    4
       Max CFL number:  0.70E-02 at (39,3,2)
       Max divergence:  0.12E-04 at (45,1,36)
       Min divergence: -0.19E-05 at (14,38,39)
       Max VN number:   0.69E-02 at (40,3,40)
       Radiation Loss to Boundaries:         0.015 kW
       Mesh    5
       Max CFL number:  0.85E-02 at (49,35,22)
       Max divergence:  0.17E-05 at (15,19,2)
       Min divergence: -0.21E-05 at (31,43,29)
       Max VN number:   0.92E-02 at (50,43,22)
       Mesh    6
       Max CFL number:  0.84E+00 at (21,8,4)
       Max divergence:  0.18E+01 at (22,6,1)
       Min divergence: -0.12E+01 at (28,7,7)
       Max VN number:   0.33E+00 at (30,8,10)
       Total Heat Release Rate:            145.407 kW
       Radiation Loss to Boundaries:       -44.429 kW
       Mesh    7
       Max CFL number:  0.62E-02 at (10,16,27)
       Max divergence:  0.17E-05 at (39,13,2)
       Min divergence: -0.17E-05 at (44,20,29)
       Max VN number:   0.75E-02 at (49,22,26)
       Mesh    8
       Max CFL number:  0.25E-01 at (34,50,22)
       Max divergence:  0.12E-03 at (25,1,10)
       Min divergence: -0.14E-05 at (27,49,39)
       Max VN number:   0.94E-02 at (35,50,8)
       Radiation Loss to Boundaries:         0.555 kW
 
       Time Step      50   October 10, 2022  09:10:52
       Step Size:    0.233E-01 s, Total Time:       2.53 s
       Pressure Iterations: 1
       Maximum Velocity Error:  0.16E-02 on Mesh 2 at (50,1,28)
       Maximum Pressure Error:  0.35E+02 on Mesh 6 at (22,7,1)
       ---------------------------------------------------------------
       Mesh    1
       Max CFL number:  0.55E-02 at (33,6,9)
       Max divergence:  0.17E-05 at (41,42,2)
       Min divergence: -0.20E-05 at (17,29,29)
       Max VN number:   0.82E-02 at (49,3,15)
       Mesh    2
       Max CFL number:  0.12E-01 at (1,35,21)
       Max divergence:  0.33E-03 at (50,4,6)
       Min divergence: -0.34E-06 at (2,8,39)
       Max VN number:   0.11E-01 at (1,34,17)
       Radiation Loss to Boundaries:         1.122 kW
       Mesh    3
       Max CFL number:  0.55E-02 at (21,5,24)
       Max divergence:  0.17E-05 at (10,24,2)
       Min divergence: -0.18E-05 at (22,36,29)
       Max VN number:   0.59E-02 at (23,38,30)
       Mesh    4
       Max CFL number:  0.61E-02 at (39,3,2)
       Max divergence:  0.77E-04 at (49,1,11)
       Min divergence: -0.16E-05 at (14,38,39)
       Max VN number:   0.62E-02 at (48,28,1)
       Radiation Loss to Boundaries:         0.264 kW
       Mesh    5
       Max CFL number:  0.12E-01 at (49,35,22)
       Max divergence:  0.33E-04 at (50,43,17)
       Min divergence: -0.18E-05 at (31,43,29)
       Max VN number:   0.14E-01 at (50,43,22)
       Radiation Loss to Boundaries:         0.011 kW
       Mesh    6
       Max CFL number:  0.92E+00 at (24,7,4)
       Max divergence:  0.16E+01 at (20,9,1)
       Min divergence: -0.10E+01 at (23,7,8)
       Max VN number:   0.23E+00 at (30,8,14)
       Total Heat Release Rate:            147.721 kW
       Radiation Loss to Boundaries:       -46.217 kW
       Mesh    7
       Max CFL number:  0.54E-02 at (10,16,27)
       Max divergence:  0.17E-05 at (39,13,2)
       Min divergence: -0.17E-05 at (44,20,29)
       Max VN number:   0.66E-02 at (49,22,26)
       Mesh    8
       Max CFL number:  0.35E-01 at (17,50,22)
       Max divergence:  0.12E-03 at (25,1,10)
       Min divergence: -0.14E-05 at (27,49,39)
       Max VN number:   0.10E-01 at (17,50,22)
       Radiation Loss to Boundaries:         0.576 kW
 
       Time Step      60   October 10, 2022  09:10:59
       Step Size:    0.233E-01 s, Total Time:       2.76 s
       Pressure Iterations: 1
       Maximum Velocity Error:  0.21E-02 on Mesh 2 at (50,1,40)
       Maximum Pressure Error:  0.40E+02 on Mesh 6 at (23,7,13)
       ---------------------------------------------------------------
       Mesh    1
       Max CFL number:  0.55E-02 at (33,6,9)
       Max divergence:  0.17E-05 at (41,42,2)
       Min divergence: -0.20E-05 at (17,29,29)
       Max VN number:   0.81E-02 at (49,3,15)
       Mesh    2
       Max CFL number:  0.16E-01 at (1,43,22)
       Max divergence:  0.30E-03 at (50,4,7)
       Min divergence: -0.24E-06 at (2,8,39)
       Max VN number:   0.14E-01 at (1,40,23)
       Radiation Loss to Boundaries:         1.112 kW
       Mesh    3
       Max CFL number:  0.55E-02 at (21,5,24)
       Max divergence:  0.17E-05 at (10,24,2)
       Min divergence: -0.18E-05 at (22,36,29)
       Max VN number:   0.59E-02 at (23,38,30)
       Mesh    4
       Max CFL number:  0.63E-02 at (46,36,8)
       Max divergence:  0.75E-04 at (50,1,11)
       Min divergence: -0.12E-05 at (14,38,39)
       Max VN number:   0.68E-02 at (48,28,1)
       Radiation Loss to Boundaries:         0.311 kW
       Mesh    5
       Max CFL number:  0.16E-01 at (49,35,22)
       Max divergence:  0.42E-04 at (50,43,18)
       Min divergence: -0.17E-05 at (4,30,29)
       Max VN number:   0.20E-01 at (34,47,22)
       Radiation Loss to Boundaries:         0.013 kW
       Mesh    6
       Max CFL number:  0.10E+01 at (24,7,8)
       Max divergence:  0.17E+01 at (28,9,1)
       Min divergence: -0.74E+00 at (23,7,12)
       Max VN number:   0.24E+00 at (23,7,12)
       Total Heat Release Rate:            147.876 kW
       Radiation Loss to Boundaries:       -47.842 kW
       Mesh    7
       Max CFL number:  0.54E-02 at (31,4,7)
       Max divergence:  0.54E-05 at (24,1,21)
       Min divergence: -0.17E-05 at (44,20,29)
       Max VN number:   0.65E-02 at (49,22,26)
       Radiation Loss to Boundaries:         0.002 kW
       Mesh    8
       Max CFL number:  0.47E-01 at (17,50,22)
       Max divergence:  0.10E-03 at (33,1,12)
       Min divergence: -0.23E-05 at (25,50,23)
       Max VN number:   0.13E-01 at (17,50,22)
       Radiation Loss to Boundaries:         0.564 kW
 
       Time Step      70   October 10, 2022  09:11:06
       Step Size:    0.205E-01 s, Total Time:       2.97 s
       Pressure Iterations: 1
       Maximum Velocity Error:  0.12E-02 on Mesh 1 at (50,32,1)
       Maximum Pressure Error:  0.46E+02 on Mesh 6 at (24,7,14)
       ---------------------------------------------------------------
       Mesh    1
       Max CFL number:  0.48E-02 at (33,6,9)
       Max divergence:  0.17E-05 at (41,42,2)
       Min divergence: -0.20E-05 at (17,29,29)
       Max VN number:   0.71E-02 at (49,3,15)
       Mesh    2
       Max CFL number:  0.17E-01 at (1,43,22)
       Max divergence:  0.30E-03 at (50,10,6)
       Min divergence: -0.24E-06 at (2,8,39)
       Max VN number:   0.13E-01 at (1,34,17)
       Radiation Loss to Boundaries:         1.137 kW
       Mesh    3
       Max CFL number:  0.48E-02 at (21,5,24)
       Max divergence:  0.17E-05 at (10,24,2)
       Min divergence: -0.18E-05 at (22,36,29)
       Max VN number:   0.52E-02 at (23,38,30)
       Mesh    4
       Max CFL number:  0.59E-02 at (46,36,8)
       Max divergence:  0.72E-04 at (50,1,12)
       Min divergence: -0.10E-05 at (14,38,39)
       Max VN number:   0.64E-02 at (48,28,1)
       Radiation Loss to Boundaries:         0.308 kW
       Mesh    5
       Max CFL number:  0.17E-01 at (49,35,22)
       Max divergence:  0.45E-04 at (50,43,18)
       Min divergence: -0.17E-05 at (4,30,29)
       Max VN number:   0.23E-01 at (34,47,22)
       Radiation Loss to Boundaries:         0.013 kW
       Mesh    6
       Max CFL number:  0.89E+00 at (24,7,14)
       Max divergence:  0.16E+01 at (27,9,1)
       Min divergence: -0.75E+00 at (25,7,8)
       Max VN number:   0.22E+00 at (24,7,13)
       Total Heat Release Rate:            149.324 kW
       Radiation Loss to Boundaries:       -49.296 kW
       Mesh    7
       Max CFL number:  0.51E-02 at (31,2,7)
       Max divergence:  0.54E-05 at (24,1,21)
       Min divergence: -0.17E-05 at (44,20,29)
       Max VN number:   0.57E-02 at (49,22,26)
       Radiation Loss to Boundaries:         0.002 kW
       Mesh    8
       Max CFL number:  0.48E-01 at (17,50,22)
       Max divergence:  0.91E-04 at (34,1,11)
       Min divergence: -0.37E-05 at (23,50,23)
       Max VN number:   0.13E-01 at (17,50,22)
       Radiation Loss to Boundaries:         0.585 kW
 
       Time Step      80   October 10, 2022  09:11:12
       Step Size:    0.179E-01 s, Total Time:       3.16 s
       Pressure Iterations: 1
       Maximum Velocity Error:  0.17E-02 on Mesh 2 at (50,1,13)
       Maximum Pressure Error:  0.53E+02 on Mesh 6 at (24,6,16)
       ---------------------------------------------------------------
       Mesh    1
       Max CFL number:  0.41E-02 at (33,6,9)
       Max divergence:  0.17E-05 at (41,42,2)
       Min divergence: -0.19E-05 at (17,29,29)
       Max VN number:   0.62E-02 at (49,3,15)
       Mesh    2
       Max CFL number:  0.15E-01 at (1,43,22)
       Max divergence:  0.31E-03 at (50,11,6)
       Min divergence: -0.21E-06 at (2,8,39)
       Max VN number:   0.12E-01 at (1,34,17)
       Radiation Loss to Boundaries:         1.180 kW
       Mesh    3
       Max CFL number:  0.42E-02 at (21,5,24)
       Max divergence:  0.21E-05 at (48,15,26)
       Min divergence: -0.16E-05 at (27,43,29)
       Max VN number:   0.45E-02 at (23,38,30)
       Radiation Loss to Boundaries:         0.002 kW
       Mesh    4
       Max CFL number:  0.53E-02 at (49,46,4)
       Max divergence:  0.66E-04 at (50,1,13)
       Min divergence: -0.90E-06 at (14,38,39)
       Max VN number:   0.57E-02 at (48,28,1)
       Radiation Loss to Boundaries:         0.312 kW
       Mesh    5
       Max CFL number:  0.16E-01 at (49,35,22)
       Max divergence:  0.44E-04 at (50,43,18)
       Min divergence: -0.17E-05 at (4,30,29)
       Max VN number:   0.23E-01 at (34,47,22)
       Radiation Loss to Boundaries:         0.012 kW
       Mesh    6
       Max CFL number:  0.92E+00 at (24,5,13)
       Max divergence:  0.17E+01 at (20,9,1)
       Min divergence: -0.68E+00 at (21,6,4)
       Max VN number:   0.22E+00 at (22,1,2)
       Total Heat Release Rate:            149.958 kW
       Radiation Loss to Boundaries:       -49.329 kW
       Mesh    7
       Max CFL number:  0.47E-02 at (29,2,15)
       Max divergence:  0.59E-05 at (25,1,22)
       Min divergence: -0.17E-05 at (44,20,29)
       Max VN number:   0.50E-02 at (49,22,26)
       Radiation Loss to Boundaries:         0.002 kW
       Mesh    8
       Max CFL number:  0.44E-01 at (17,50,22)
       Max divergence:  0.89E-04 at (34,1,11)
       Min divergence: -0.47E-05 at (24,50,23)
       Max VN number:   0.11E-01 at (17,50,22)
       Radiation Loss to Boundaries:         0.599 kW
 
       Time Step      90   October 10, 2022  09:11:20
       Step Size:    0.160E-01 s, Total Time:       3.33 s
       Pressure Iterations: 1
       Maximum Velocity Error:  0.20E-02 on Mesh 2 at (50,2,17)
       Maximum Pressure Error:  0.54E+02 on Mesh 6 at (24,4,16)
       ---------------------------------------------------------------
       Mesh    1
       Max CFL number:  0.37E-02 at (33,6,9)
       Max divergence:  0.17E-05 at (45,33,2)
       Min divergence: -0.19E-05 at (17,29,29)
       Max VN number:   0.56E-02 at (49,3,15)
       Mesh    2
       Max CFL number:  0.16E-01 at (50,3,1)
       Max divergence:  0.33E-03 at (50,10,6)
       Min divergence: -0.20E-06 at (2,8,39)
       Max VN number:   0.11E-01 at (1,34,17)
       Radiation Loss to Boundaries:         1.231 kW
       Mesh    3
       Max CFL number:  0.38E-02 at (21,5,24)
       Max divergence:  0.22E-05 at (48,15,26)
       Min divergence: -0.16E-05 at (27,43,29)
       Max VN number:   0.40E-02 at (23,38,30)
       Radiation Loss to Boundaries:         0.002 kW
       Mesh    4
       Max CFL number:  0.49E-02 at (49,46,4)
       Max divergence:  0.66E-04 at (50,1,13)
       Min divergence: -0.84E-06 at (45,49,39)
       Max VN number:   0.52E-02 at (48,28,1)
       Radiation Loss to Boundaries:         0.320 kW
       Mesh    5
       Max CFL number:  0.13E-01 at (49,35,22)
       Max divergence:  0.47E-04 at (50,43,18)
       Min divergence: -0.17E-05 at (4,30,29)
       Max VN number:   0.21E-01 at (34,47,22)
       Radiation Loss to Boundaries:         0.013 kW
       Mesh    6
       Max CFL number:  0.89E+00 at (24,6,16)
       Max divergence:  0.17E+01 at (32,7,1)
       Min divergence: -0.78E+00 at (22,6,7)
       Max VN number:   0.24E+00 at (22,1,2)
       Total Heat Release Rate:            150.463 kW
       Radiation Loss to Boundaries:       -50.021 kW
       Mesh    7
       Max CFL number:  0.43E-02 at (27,2,20)
       Max divergence:  0.55E-05 at (25,1,22)
       Min divergence: -0.17E-05 at (44,20,29)
       Max VN number:   0.44E-02 at (49,22,26)
       Radiation Loss to Boundaries:         0.002 kW
       Mesh    8
       Max CFL number:  0.39E-01 at (17,50,22)
       Max divergence:  0.98E-04 at (17,1,12)
       Min divergence: -0.56E-05 at (24,50,23)
       Max VN number:   0.10E-01 at (17,50,22)
       Radiation Loss to Boundaries:         0.620 kW
 
       Time Step     100   October 10, 2022  09:11:27
       Step Size:    0.160E-01 s, Total Time:       3.49 s
       Pressure Iterations: 1
       Maximum Velocity Error:  0.20E-02 on Mesh 2 at (50,1,20)
       Maximum Pressure Error:  0.42E+02 on Mesh 6 at (25,6,23)
       ---------------------------------------------------------------
       Mesh    1
       Max CFL number:  0.37E-02 at (33,6,9)
       Max divergence:  0.17E-05 at (45,33,2)
       Min divergence: -0.19E-05 at (17,29,29)
       Max VN number:   0.55E-02 at (49,3,15)
       Mesh    2
       Max CFL number:  0.18E-01 at (50,3,1)
       Max divergence:  0.35E-03 at (50,3,7)
       Min divergence: -0.13E-06 at (2,8,39)
       Max VN number:   0.95E-02 at (1,34,17)
       Radiation Loss to Boundaries:         1.236 kW
       Mesh    3
       Max CFL number:  0.37E-02 at (21,5,24)
       Max divergence:  0.22E-05 at (48,15,26)
       Min divergence: -0.16E-05 at (27,43,29)
       Max VN number:   0.40E-02 at (23,38,30)
       Radiation Loss to Boundaries:         0.002 kW
       Mesh    4
       Max CFL number:  0.50E-02 at (49,46,4)
       Max divergence:  0.71E-04 at (50,1,12)
       Min divergence: -0.82E-06 at (45,49,39)
       Max VN number:   0.51E-02 at (48,28,1)
       Radiation Loss to Boundaries:         0.332 kW
       Mesh    5
       Max CFL number:  0.12E-01 at (34,46,22)
       Max divergence:  0.48E-04 at (50,43,18)
       Min divergence: -0.17E-05 at (4,30,29)
       Max VN number:   0.20E-01 at (34,47,22)
       Radiation Loss to Boundaries:         0.013 kW
       Mesh    6
       Max CFL number:  0.86E+00 at (24,4,18)
       Max divergence:  0.17E+01 at (33,6,1)
       Min divergence: -0.76E+00 at (28,6,4)
       Max VN number:   0.23E+00 at (19,1,4)
       Total Heat Release Rate:            149.656 kW
       Radiation Loss to Boundaries:       -50.196 kW
       Mesh    7
       Max CFL number:  0.43E-02 at (27,2,20)
       Max divergence:  0.55E-05 at (25,1,22)
       Min divergence: -0.17E-05 at (44,20,29)
       Max VN number:   0.44E-02 at (49,22,26)
       Radiation Loss to Boundaries:         0.002 kW
       Mesh    8
       Max CFL number:  0.37E-01 at (17,50,22)
       Max divergence:  0.10E-03 at (33,1,11)
       Min divergence: -0.59E-05 at (24,50,23)
       Max VN number:   0.92E-02 at (17,50,22)
       Radiation Loss to Boundaries:         0.630 kW
 
       Time Step     200   October 10, 2022  09:12:32
       Step Size:    0.155E-01 s, Total Time:       5.02 s
       Pressure Iterations: 1
       Maximum Velocity Error:  0.47E-02 on Mesh 2 at (50,2,40)
       Maximum Pressure Error:  0.12E+03 on Mesh 6 at (34,1,40)
       ---------------------------------------------------------------
       Mesh    1
       Max CFL number:  0.33E-02 at (33,6,9)
       Max divergence:  0.17E-05 at (45,33,2)
       Min divergence: -0.18E-05 at (17,29,29)
       Max VN number:   0.52E-02 at (49,3,15)
       Mesh    2
       Max CFL number:  0.62E-01 at (50,3,39)
       Max divergence:  0.33E-03 at (50,2,6)
       Min divergence:  0.30E-06 at (2,5,5)
       Max VN number:   0.12E-01 at (1,44,21)
       Radiation Loss to Boundaries:         1.224 kW
       Mesh    3
       Max CFL number:  0.33E-02 at (13,43,10)
       Max divergence:  0.24E-05 at (48,15,26)
       Min divergence: -0.16E-05 at (33,47,29)
       Max VN number:   0.36E-02 at (39,50,28)
       Radiation Loss to Boundaries:         0.002 kW
       Mesh    4
       Max CFL number:  0.47E-02 at (41,8,38)
       Max divergence:  0.75E-04 at (50,1,12)
       Min divergence: -0.74E-06 at (45,49,39)
       Max VN number:   0.46E-02 at (48,28,1)
       Radiation Loss to Boundaries:         0.340 kW
       Mesh    5
       Max CFL number:  0.14E-01 at (34,46,22)
       Max divergence:  0.60E-04 at (50,43,18)
       Min divergence: -0.25E-05 at (34,48,23)
       Max VN number:   0.23E-01 at (26,47,22)
       Radiation Loss to Boundaries:         0.016 kW
       Mesh    6
       Max CFL number:  0.90E+00 at (34,9,40)
       Max divergence:  0.17E+01 at (25,9,1)
       Min divergence: -0.87E+00 at (22,4,6)
       Max VN number:   0.71E+00 at (40,1,38)
       Total Heat Release Rate:            150.687 kW
       Radiation Loss to Boundaries:       -50.340 kW
       Mesh    7
       Max CFL number:  0.47E-02 at (26,2,19)
       Max divergence:  0.63E-05 at (24,1,21)
       Min divergence: -0.16E-05 at (44,20,29)
       Max VN number:   0.42E-02 at (15,10,1)
       Radiation Loss to Boundaries:         0.002 kW
       Mesh    8
       Max CFL number:  0.27E-01 at (18,50,21)
       Max divergence:  0.10E-03 at (15,1,11)
       Min divergence: -0.42E-05 at (25,50,22)
       Max VN number:   0.53E-02 at (8,27,40)
       Radiation Loss to Boundaries:         0.620 kW
 
       Time Step     300   October 10, 2022  09:13:54
       Step Size:    0.171E-01 s, Total Time:       6.59 s
       Pressure Iterations: 3
       Maximum Velocity Error:  0.31E-01 on Mesh 2 at (50,16,40)
       Maximum Pressure Error:  0.90E+02 on Mesh 6 at (14,1,40)
       ---------------------------------------------------------------
       Mesh    1
       Max CFL number:  0.35E-02 at (33,6,9)
       Max divergence:  0.16E-05 at (45,33,2)
       Min divergence: -0.17E-05 at (17,29,29)
       Max VN number:   0.57E-02 at (43,30,23)
       Mesh    2
       Max CFL number:  0.89E+00 at (45,21,40)
       Max divergence:  0.10E+00 at (36,5,40)
       Min divergence: -0.14E+00 at (36,3,40)
       Max VN number:   0.56E+00 at (39,1,39)
       Radiation Loss to Boundaries:         1.070 kW
       Mesh    3
       Max CFL number:  0.35E-02 at (21,5,24)
       Max divergence:  0.23E-05 at (48,15,26)
       Min divergence: -0.16E-05 at (33,47,29)
       Max VN number:   0.37E-02 at (42,50,8)
       Radiation Loss to Boundaries:         0.002 kW
       Mesh    4
       Max CFL number:  0.96E-02 at (49,1,38)
       Max divergence:  0.78E-04 at (50,1,12)
       Min divergence: -0.70E-06 at (45,49,39)
       Max VN number:   0.41E-02 at (47,50,32)
       Radiation Loss to Boundaries:         0.351 kW
       Mesh    5
       Max CFL number:  0.13E-01 at (49,35,22)
       Max divergence:  0.71E-04 at (50,43,18)
       Min divergence: -0.17E-05 at (41,49,29)
       Max VN number:   0.13E-01 at (34,47,22)
       Radiation Loss to Boundaries:         0.016 kW
       Mesh    6
       Max CFL number:  0.81E+00 at (24,4,15)
       Max divergence:  0.28E+01 at (18,5,1)
       Min divergence: -0.71E+00 at (19,6,3)
       Max VN number:   0.54E+00 at (9,38,40)
       Total Heat Release Rate:            150.227 kW
       Radiation Loss to Boundaries:       -49.518 kW
       Mesh    7
       Max CFL number:  0.38E-02 at (27,2,20)
       Max divergence:  0.65E-05 at (24,1,21)
       Min divergence: -0.15E-05 at (44,20,29)
       Max VN number:   0.44E-02 at (49,22,26)
       Radiation Loss to Boundaries:         0.002 kW
       Mesh    8
       Max CFL number:  0.28E-01 at (49,1,39)
       Max divergence:  0.10E-03 at (16,1,11)
       Min divergence: -0.31E-05 at (24,50,22)
       Max VN number:   0.57E-02 at (8,27,40)
       Radiation Loss to Boundaries:         0.636 kW
 
       Time Step     400   October 10, 2022  09:15:13
       Step Size:    0.152E-01 s, Total Time:       8.15 s
       Pressure Iterations: 2
       Maximum Velocity Error:  0.32E-01 on Mesh 6 at (21,50,40)
       Maximum Pressure Error:  0.70E+02 on Mesh 6 at (20,1,26)
       ---------------------------------------------------------------
       Mesh    1
       Max CFL number:  0.30E-02 at (5,30,8)
       Max divergence:  0.15E-05 at (45,33,2)
       Min divergence: -0.17E-05 at (24,36,29)
       Max VN number:   0.49E-02 at (43,30,23)
       Mesh    2
       Max CFL number:  0.56E+00 at (22,19,40)
       Max divergence:  0.65E-01 at (23,39,40)
       Min divergence: -0.87E-01 at (25,39,40)
       Max VN number:   0.51E+00 at (42,47,40)
       Radiation Loss to Boundaries:         0.922 kW
       Mesh    3
       Max CFL number:  0.29E-02 at (13,43,10)
       Max divergence:  0.23E-05 at (48,15,26)
       Min divergence: -0.15E-05 at (33,47,29)
       Max VN number:   0.35E-02 at (42,50,8)
       Radiation Loss to Boundaries:         0.002 kW
       Mesh    4
       Max CFL number:  0.36E+00 at (46,1,40)
       Max divergence:  0.13E-01 at (49,3,38)
       Min divergence: -0.22E-01 at (48,3,40)
       Max VN number:   0.43E-01 at (50,1,39)
       Radiation Loss to Boundaries:         0.351 kW
       Mesh    5
       Max CFL number:  0.11E-01 at (49,35,3)
       Max divergence:  0.73E-04 at (50,43,18)
       Min divergence: -0.17E-05 at (41,49,29)
       Max VN number:   0.12E-01 at (50,35,6)
       Radiation Loss to Boundaries:         0.016 kW
       Mesh    6
       Max CFL number:  0.84E+00 at (42,16,40)
       Max divergence:  0.29E+01 at (18,7,1)
       Min divergence: -0.10E+01 at (23,6,5)
       Max VN number:   0.61E+00 at (46,11,40)
       Total Heat Release Rate:            150.577 kW
       Radiation Loss to Boundaries:       -50.242 kW
       Mesh    7
       Max CFL number:  0.31E-02 at (20,16,14)
       Max divergence:  0.61E-05 at (24,1,21)
       Min divergence: -0.15E-05 at (45,38,29)
       Max VN number:   0.38E-02 at (49,22,26)
       Radiation Loss to Boundaries:         0.002 kW
       Mesh    8
       Max CFL number:  0.45E+00 at (1,1,40)
       Max divergence:  0.59E-01 at (20,2,40)
       Min divergence: -0.10E+00 at (21,2,40)
       Max VN number:   0.54E+00 at (2,2,40)
       Radiation Loss to Boundaries:         0.628 kW
 
       Time Step     500   October 10, 2022  09:16:29
       Step Size:    0.182E-01 s, Total Time:       9.78 s
       Pressure Iterations: 2
       Maximum Velocity Error:  0.37E-01 on Mesh 2 at (50,16,40)
       Maximum Pressure Error:  0.56E+02 on Mesh 6 at (28,10,40)
       ---------------------------------------------------------------
       Mesh    1
       Max CFL number:  0.34E-02 at (5,30,8)
       Max divergence:  0.14E-05 at (45,33,2)
       Min divergence: -0.17E-05 at (24,36,29)
       Max VN number:   0.56E-02 at (43,30,23)
       Mesh    2
       Max CFL number:  0.71E+00 at (48,10,40)
       Max divergence:  0.77E-01 at (45,7,39)
       Min divergence: -0.98E-01 at (45,7,40)
       Max VN number:   0.45E+00 at (46,46,40)
       Radiation Loss to Boundaries:         0.875 kW
       Mesh    3
       Max CFL number:  0.34E-02 at (32,22,2)
       Max divergence:  0.22E-05 at (48,15,26)
       Min divergence: -0.15E-05 at (33,47,29)
       Max VN number:   0.42E-02 at (42,50,8)
       Radiation Loss to Boundaries:         0.002 kW
       Mesh    4
       Max CFL number:  0.51E+00 at (24,8,40)
       Max divergence:  0.32E-01 at (50,7,39)
       Min divergence: -0.65E-01 at (22,7,40)
       Max VN number:   0.52E+00 at (23,7,40)
       Radiation Loss to Boundaries:         0.313 kW
       Mesh    5
       Max CFL number:  0.38E-01 at (50,43,22)
       Max divergence:  0.67E-04 at (50,43,17)
       Min divergence: -0.43E-05 at (49,43,22)
       Max VN number:   0.27E-01 at (50,43,22)
       Radiation Loss to Boundaries:         0.016 kW
       Mesh    6
       Max CFL number:  0.86E+00 at (36,24,40)
       Max divergence:  0.21E+01 at (28,9,1)
       Min divergence: -0.89E+00 at (21,5,4)
       Max VN number:   0.83E+00 at (42,1,38)
       Total Heat Release Rate:            149.342 kW
       Radiation Loss to Boundaries:       -50.372 kW
       Mesh    7
       Max CFL number:  0.39E-02 at (27,2,20)
       Max divergence:  0.65E-05 at (24,1,21)
       Min divergence: -0.14E-05 at (45,38,29)
       Max VN number:   0.42E-02 at (49,22,26)
       Radiation Loss to Boundaries:         0.002 kW
       Mesh    8
       Max CFL number:  0.49E+00 at (2,10,40)
       Max divergence:  0.42E-01 at (50,19,32)
       Min divergence: -0.40E-01 at (12,12,40)
       Max VN number:   0.42E+00 at (1,16,40)
       Radiation Loss to Boundaries:         0.499 kW
 
       Time Step     600   October 10, 2022  09:17:49
       Step Size:    0.177E-01 s, Total Time:      11.48 s
       Pressure Iterations: 2
       Maximum Velocity Error:  0.32E-01 on Mesh 6 at (32,50,38)
       Maximum Pressure Error:  0.67E+02 on Mesh 6 at (27,1,33)
       ---------------------------------------------------------------
       Mesh    1
       Max CFL number:  0.32E-02 at (5,30,8)
       Max divergence:  0.14E-05 at (45,33,2)
       Min divergence: -0.17E-05 at (24,36,29)
       Max VN number:   0.51E-02 at (43,30,23)
       Mesh    2
       Max CFL number:  0.71E+00 at (46,16,40)
       Max divergence:  0.63E-01 at (48,10,38)
       Min divergence: -0.50E-01 at (39,16,39)
       Max VN number:   0.39E+00 at (47,6,40)
       Radiation Loss to Boundaries:         0.866 kW
       Mesh    3
       Max CFL number:  0.32E-02 at (32,22,2)
       Max divergence:  0.21E-05 at (48,15,26)
       Min divergence: -0.14E-05 at (33,47,29)
       Max VN number:   0.41E-02 at (42,50,8)
       Radiation Loss to Boundaries:         0.002 kW
       Mesh    4
       Max CFL number:  0.36E+00 at (24,12,40)
       Max divergence:  0.28E-01 at (5,6,40)
       Min divergence: -0.27E-01 at (5,7,40)
       Max VN number:   0.30E+00 at (43,23,40)
       Radiation Loss to Boundaries:         0.263 kW
       Mesh    5
       Max CFL number:  0.36E-01 at (50,43,22)
       Max divergence:  0.79E-04 at (50,43,20)
       Min divergence: -0.29E-05 at (49,35,21)
       Max VN number:   0.17E-01 at (50,35,3)
       Radiation Loss to Boundaries:         0.017 kW
       Mesh    6
       Max CFL number:  0.93E+00 at (27,2,30)
       Max divergence:  0.18E+01 at (27,4,1)
       Min divergence: -0.97E+00 at (21,5,7)
       Max VN number:   0.59E+00 at (49,1,37)
       Total Heat Release Rate:            150.351 kW
       Radiation Loss to Boundaries:       -50.214 kW
       Mesh    7
       Max CFL number:  0.32E-02 at (20,16,14)
       Max divergence:  0.60E-05 at (24,1,21)
       Min divergence: -0.14E-05 at (45,38,29)
       Max VN number:   0.42E-02 at (15,10,1)
       Radiation Loss to Boundaries:         0.002 kW
       Mesh    8
       Max CFL number:  0.50E+00 at (32,1,38)
       Max divergence:  0.44E-01 at (23,5,39)
       Min divergence: -0.51E-01 at (24,5,39)
       Max VN number:   0.32E+00 at (50,2,24)
       Radiation Loss to Boundaries:         0.354 kW
 
       Time Step     700   October 10, 2022  09:19:13
       Step Size:    0.178E-01 s, Total Time:      13.15 s
       Pressure Iterations: 2
       Maximum Velocity Error:  0.23E-01 on Mesh 2 at (37,50,39)
       Maximum Pressure Error:  0.62E+02 on Mesh 6 at (24,5,21)
       ---------------------------------------------------------------
       Mesh    1
       Max CFL number:  0.30E-02 at (5,30,8)
       Max divergence:  0.13E-05 at (36,2,2)
       Min divergence: -0.17E-05 at (24,36,29)
       Max VN number:   0.49E-02 at (49,3,15)
       Mesh    2
       Max CFL number:  0.69E+00 at (48,12,40)
       Max divergence:  0.51E-01 at (38,15,39)
       Min divergence: -0.84E-01 at (39,16,40)
       Max VN number:   0.45E+00 at (40,16,40)
       Radiation Loss to Boundaries:         0.802 kW
       Mesh    3
       Max CFL number:  0.31E-02 at (32,22,2)
       Max divergence:  0.22E-05 at (48,15,26)
       Min divergence: -0.14E-05 at (33,47,29)
       Max VN number:   0.40E-02 at (42,50,8)
       Radiation Loss to Boundaries:         0.002 kW
       Mesh    4
       Max CFL number:  0.54E+00 at (36,2,40)
       Max divergence:  0.25E-01 at (37,4,39)
       Min divergence: -0.43E-01 at (37,3,40)
       Max VN number:   0.44E+00 at (37,2,40)
       Radiation Loss to Boundaries:         0.213 kW
       Mesh    5
       Max CFL number:  0.44E-01 at (50,39,22)
       Max divergence:  0.46E-02 at (50,37,22)
       Min divergence: -0.69E-03 at (50,43,22)
       Max VN number:   0.19E-01 at (50,41,22)
       Radiation Loss to Boundaries:         0.017 kW
       Mesh    6
       Max CFL number:  0.94E+00 at (39,5,40)
       Max divergence:  0.23E+01 at (17,5,1)
       Min divergence: -0.64E+00 at (21,6,5)
       Max VN number:   0.72E+00 at (15,1,39)
       Total Heat Release Rate:            149.254 kW
       Radiation Loss to Boundaries:       -49.305 kW
       Mesh    7
       Max CFL number:  0.32E-02 at (27,2,20)
       Max divergence:  0.65E-05 at (24,1,21)
       Min divergence: -0.13E-05 at (45,38,29)
       Max VN number:   0.40E-02 at (49,22,17)
       Radiation Loss to Boundaries:         0.002 kW
       Mesh    8
       Max CFL number:  0.46E+00 at (49,1,29)
       Max divergence:  0.54E-01 at (50,5,27)
       Min divergence: -0.47E-01 at (49,1,28)
       Max VN number:   0.36E+00 at (50,2,29)
       Radiation Loss to Boundaries:         0.154 kW
 
       Time Step     800   October 10, 2022  09:20:51
       Step Size:    0.175E-01 s, Total Time:      14.76 s
       Pressure Iterations: 2
       Maximum Velocity Error:  0.46E-01 on Mesh 2 at (50,14,40)
       Maximum Pressure Error:  0.41E+02 on Mesh 6 at (25,2,29)
       ---------------------------------------------------------------
       Mesh    1
       Max CFL number:  0.28E-02 at (5,30,8)
       Max divergence:  0.13E-05 at (36,2,2)
       Min divergence: -0.16E-05 at (24,36,29)
       Max VN number:   0.46E-02 at (49,3,15)
       Mesh    2
       Max CFL number:  0.70E+00 at (50,18,40)
       Max divergence:  0.10E+00 at (48,14,39)
       Min divergence: -0.15E+00 at (48,8,40)
       Max VN number:   0.47E+00 at (49,17,40)
       Radiation Loss to Boundaries:         0.765 kW
       Mesh    3
       Max CFL number:  0.29E-02 at (32,22,2)
       Max divergence:  0.21E-05 at (50,12,26)
       Min divergence: -0.13E-05 at (33,47,29)
       Max VN number:   0.39E-02 at (42,50,8)
       Radiation Loss to Boundaries:         0.002 kW
       Mesh    4
       Max CFL number:  0.40E+00 at (22,18,40)
       Max divergence:  0.28E-01 at (37,2,37)
       Min divergence: -0.36E-01 at (37,2,38)
       Max VN number:   0.24E+00 at (20,40,40)
       Radiation Loss to Boundaries:         0.136 kW
       Mesh    5
       Max CFL number:  0.63E-01 at (50,39,22)
       Max divergence:  0.16E-02 at (49,43,22)
       Min divergence: -0.48E-02 at (50,42,22)
       Max VN number:   0.31E-01 at (50,35,22)
       Radiation Loss to Boundaries:         0.016 kW
       Mesh    6
       Max CFL number:  0.86E+00 at (26,3,24)
       Max divergence:  0.20E+01 at (30,5,1)
       Min divergence: -0.79E+00 at (23,6,7)
       Max VN number:   0.70E+00 at (32,1,39)
       Total Heat Release Rate:            151.159 kW
       Radiation Loss to Boundaries:       -49.386 kW
       Mesh    7
       Max CFL number:  0.29E-02 at (16,30,12)
       Max divergence:  0.60E-05 at (24,1,21)
       Min divergence: -0.12E-05 at (45,38,29)
       Max VN number:   0.41E-02 at (49,22,17)
       Radiation Loss to Boundaries:         0.002 kW
       Mesh    8
       Max CFL number:  0.47E+00 at (22,1,40)
       Max divergence:  0.49E-01 at (50,15,31)
       Min divergence: -0.55E-01 at (49,14,30)
       Max VN number:   0.46E+00 at (50,30,32)
       Radiation Loss to Boundaries:         0.007 kW
 
       Time Step     900   October 10, 2022  09:22:59
       Step Size:    0.167E-01 s, Total Time:      16.49 s
       Pressure Iterations: 2
       Maximum Velocity Error:  0.24E-01 on Mesh 2 at (50,7,40)
       Maximum Pressure Error:  0.96E+02 on Mesh 6 at (28,6,28)
       ---------------------------------------------------------------
       Mesh    1
       Max CFL number:  0.26E-02 at (25,48,26)
       Max divergence:  0.12E-05 at (36,2,2)
       Min divergence: -0.16E-05 at (24,36,29)
       Max VN number:   0.42E-02 at (49,3,15)
       Mesh    2
       Max CFL number:  0.48E+00 at (18,7,40)
       Max divergence:  0.34E-01 at (46,10,40)
       Min divergence: -0.33E-01 at (48,46,39)
       Max VN number:   0.40E+00 at (23,8,40)
       Radiation Loss to Boundaries:         0.781 kW
       Mesh    3
       Max CFL number:  0.27E-02 at (32,22,2)
       Max divergence:  0.21E-05 at (50,12,26)
       Min divergence: -0.13E-05 at (33,47,29)
       Max VN number:   0.36E-02 at (42,50,8)
       Radiation Loss to Boundaries:         0.002 kW
       Mesh    4
       Max CFL number:  0.40E+00 at (49,6,40)
       Max divergence:  0.25E-01 at (26,4,39)
       Min divergence: -0.22E-01 at (44,11,40)
       Max VN number:   0.25E+00 at (1,8,28)
       Radiation Loss to Boundaries:         0.048 kW
       Mesh    5
       Max CFL number:  0.45E-01 at (50,42,22)
       Max divergence:  0.86E-03 at (49,43,22)
       Min divergence: -0.22E-02 at (49,42,22)
       Max VN number:   0.15E-01 at (49,37,21)
       Radiation Loss to Boundaries:         0.016 kW
       Mesh    6
       Max CFL number:  0.90E+00 at (28,4,24)
       Max divergence:  0.17E+01 at (25,5,1)
       Min divergence: -0.86E+00 at (31,7,4)
       Max VN number:   0.56E+00 at (50,36,29)
       Total Heat Release Rate:            149.907 kW
       Radiation Loss to Boundaries:       -50.760 kW
       Mesh    7
       Max CFL number:  0.31E-02 at (27,2,20)
       Max divergence:  0.61E-05 at (24,1,21)
       Min divergence: -0.12E-05 at (45,38,29)
       Max VN number:   0.39E-02 at (49,22,17)
[...]
       Max divergence:  0.28E-01 at (15,50,12)
       Min divergence: -0.30E-01 at (7,1,40)
       Max VN number:   0.37E+00 at (50,13,32)
       Radiation Loss to Boundaries:        -4.460 kW
 
       Time Step    9600   October 10, 2022  11:24:15
       Step Size:    0.181E-01 s, Total Time:     168.89 s
       Pressure Iterations: 1
       Maximum Velocity Error:  0.42E-01 on Mesh 2 at (50,21,40)
       Maximum Pressure Error:  0.73E+02 on Mesh 6 at (27,1,32)
       ---------------------------------------------------------------
       Mesh    1
       Max CFL number:  0.17E+00 at (6,32,21)
       Max divergence:  0.10E-01 at (10,24,22)
       Min divergence: -0.10E-01 at (9,32,15)
       Max VN number:   0.18E+00 at (10,31,22)
       Radiation Loss to Boundaries:        -0.595 kW
       Mesh    2
       Max CFL number:  0.53E+00 at (27,23,40)
       Max divergence:  0.33E-01 at (50,25,39)
       Min divergence: -0.33E-01 at (47,20,37)
       Max VN number:   0.61E+00 at (47,16,40)
       Radiation Loss to Boundaries:        -3.263 kW
       Mesh    3
       Max CFL number:  0.71E-01 at (49,6,30)
       Max divergence:  0.26E-03 at (50,7,28)
       Min divergence: -0.60E-03 at (49,9,30)
       Max VN number:   0.50E-01 at (50,50,18)
       Radiation Loss to Boundaries:        -0.005 kW
       Mesh    4
       Max CFL number:  0.42E+00 at (40,19,40)
       Max divergence:  0.17E-01 at (43,11,38)
       Min divergence: -0.17E-01 at (43,13,40)
       Max VN number:   0.40E+00 at (41,20,40)
       Radiation Loss to Boundaries:        -4.474 kW
       Mesh    5
       Max CFL number:  0.25E+00 at (31,39,29)
       Max divergence:  0.14E-01 at (43,42,19)
       Min divergence: -0.16E-01 at (9,28,22)
       Max VN number:   0.22E+00 at (9,32,23)
       Radiation Loss to Boundaries:        -0.429 kW
       Mesh    6
       Max CFL number:  0.84E+00 at (12,1,36)
       Max divergence:  0.20E+01 at (27,4,1)
       Min divergence: -0.84E+00 at (21,4,5)
       Max VN number:   0.87E+00 at (30,1,39)
       Total Heat Release Rate:            148.533 kW
       Radiation Loss to Boundaries:       -53.089 kW
       Mesh    7
       Max CFL number:  0.14E+00 at (33,3,27)
       Max divergence:  0.70E-02 at (27,1,26)
       Min divergence: -0.66E-02 at (26,1,26)
       Max VN number:   0.74E-01 at (48,4,30)
       Radiation Loss to Boundaries:        -0.023 kW
       Mesh    8
       Max CFL number:  0.41E+00 at (34,11,40)
       Max divergence:  0.37E-01 at (34,50,13)
       Min divergence: -0.23E-01 at (34,49,12)
       Max VN number:   0.24E+00 at (50,7,29)
       Radiation Loss to Boundaries:        -4.519 kW
 
       Time Step    9700   October 10, 2022  11:25:32
       Step Size:    0.168E-01 s, Total Time:     170.70 s
       Pressure Iterations: 2
       Maximum Velocity Error:  0.17E-01 on Mesh 2 at (50,27,39)
       Maximum Pressure Error:  0.11E+03 on Mesh 6 at (23,1,35)
       ---------------------------------------------------------------
       Mesh    1
       Max CFL number:  0.18E+00 at (6,32,21)
       Max divergence:  0.10E-01 at (14,29,23)
       Min divergence: -0.10E-01 at (9,26,20)
       Max VN number:   0.18E+00 at (9,31,22)
       Radiation Loss to Boundaries:        -0.604 kW
       Mesh    2
       Max CFL number:  0.56E+00 at (49,24,40)
       Max divergence:  0.19E-01 at (45,41,38)
       Min divergence: -0.41E-01 at (47,33,40)
       Max VN number:   0.35E+00 at (46,33,40)
       Radiation Loss to Boundaries:        -3.288 kW
       Mesh    3
       Max CFL number:  0.78E-01 at (50,29,30)
       Max divergence:  0.51E-03 at (43,6,29)
       Min divergence: -0.67E-03 at (43,6,30)
       Max VN number:   0.44E-01 at (49,50,17)
       Radiation Loss to Boundaries:        -0.006 kW
       Mesh    4
       Max CFL number:  0.26E+00 at (49,4,40)
       Max divergence:  0.11E-01 at (37,22,37)
       Min divergence: -0.11E-01 at (9,50,10)
       Max VN number:   0.24E+00 at (47,4,40)
       Radiation Loss to Boundaries:        -4.498 kW
       Mesh    5
       Max CFL number:  0.22E+00 at (38,41,26)
       Max divergence:  0.20E-01 at (12,29,21)
       Min divergence: -0.20E-01 at (37,40,25)
       Max VN number:   0.16E+00 at (45,46,23)
       Radiation Loss to Boundaries:        -0.439 kW
       Mesh    6
       Max CFL number:  0.83E+00 at (28,3,26)
       Max divergence:  0.16E+01 at (19,10,1)
       Min divergence: -0.10E+01 at (23,6,6)
       Max VN number:   0.65E+00 at (24,1,36)
       Total Heat Release Rate:            148.790 kW
       Radiation Loss to Boundaries:       -53.408 kW
       Mesh    7
       Max CFL number:  0.13E+00 at (27,1,27)
       Max divergence:  0.80E-02 at (25,1,24)
       Min divergence: -0.13E-01 at (26,1,23)
       Max VN number:   0.82E-01 at (49,45,26)
       Radiation Loss to Boundaries:        -0.024 kW
       Mesh    8
       Max CFL number:  0.38E+00 at (28,1,40)
       Max divergence:  0.20E-01 at (32,50,13)
       Min divergence: -0.27E-01 at (16,50,13)
       Max VN number:   0.30E+00 at (45,2,40)
       Radiation Loss to Boundaries:        -4.555 kW
 
       Time Step    9800   October 10, 2022  11:26:48
       Step Size:    0.180E-01 s, Total Time:     172.41 s
       Pressure Iterations: 2
       Maximum Velocity Error:  0.32E-01 on Mesh 2 at (50,24,40)
       Maximum Pressure Error:  0.95E+02 on Mesh 6 at (31,4,1)
       ---------------------------------------------------------------
       Mesh    1
       Max CFL number:  0.20E+00 at (50,46,30)
       Max divergence:  0.90E-02 at (11,31,16)
       Min divergence: -0.10E-01 at (15,28,22)
       Max VN number:   0.21E+00 at (10,31,22)
       Radiation Loss to Boundaries:        -0.616 kW
       Mesh    2
       Max CFL number:  0.53E+00 at (43,18,40)
       Max divergence:  0.55E-01 at (42,16,39)
       Min divergence: -0.45E-01 at (41,17,40)
       Max VN number:   0.42E+00 at (45,21,40)
       Radiation Loss to Boundaries:        -3.312 kW
       Mesh    3
       Max CFL number:  0.84E-01 at (45,34,30)
       Max divergence:  0.42E-03 at (40,12,29)
       Min divergence: -0.61E-03 at (50,27,30)
       Max VN number:   0.44E-01 at (50,47,30)
       Radiation Loss to Boundaries:        -0.007 kW
       Mesh    4
       Max CFL number:  0.34E+00 at (26,3,40)
       Max divergence:  0.17E-01 at (1,42,12)
       Min divergence: -0.19E-01 at (41,9,40)
       Max VN number:   0.25E+00 at (35,46,40)
       Radiation Loss to Boundaries:        -4.510 kW
       Mesh    5
       Max CFL number:  0.23E+00 at (40,42,25)
       Max divergence:  0.14E-01 at (25,48,23)
       Min divergence: -0.15E-01 at (26,48,23)
       Max VN number:   0.24E+00 at (27,48,23)
       Radiation Loss to Boundaries:        -0.439 kW
       Mesh    6
       Max CFL number:  0.94E+00 at (24,6,26)
       Max divergence:  0.17E+01 at (31,4,1)
       Min divergence: -0.83E+00 at (28,5,6)
       Max VN number:   0.75E+00 at (18,1,38)
       Total Heat Release Rate:            149.559 kW
       Radiation Loss to Boundaries:       -54.057 kW
       Mesh    7
       Max CFL number:  0.14E+00 at (26,2,27)
       Max divergence:  0.94E-02 at (25,2,24)
       Min divergence: -0.20E-01 at (26,1,22)
       Max VN number:   0.79E-01 at (47,30,30)
       Radiation Loss to Boundaries:        -0.025 kW
       Mesh    8
       Max CFL number:  0.42E+00 at (6,1,39)
       Max divergence:  0.24E-01 at (25,47,20)
       Min divergence: -0.65E-01 at (34,50,10)
       Max VN number:   0.33E+00 at (50,1,24)
       Radiation Loss to Boundaries:        -4.632 kW
 
       Time Step    9900   October 10, 2022  11:28:03
       Step Size:    0.188E-01 s, Total Time:     174.13 s
       Pressure Iterations: 2
       Maximum Velocity Error:  0.21E-01 on Mesh 2 at (50,1,39)
       Maximum Pressure Error:  0.66E+02 on Mesh 6 at (48,1,40)
       ---------------------------------------------------------------
       Mesh    1
       Max CFL number:  0.21E+00 at (43,46,26)
       Max divergence:  0.13E-01 at (10,26,18)
       Min divergence: -0.14E-01 at (9,26,18)
       Max VN number:   0.19E+00 at (10,31,22)
       Radiation Loss to Boundaries:        -0.631 kW
       Mesh    2
       Max CFL number:  0.64E+00 at (27,7,40)
       Max divergence:  0.31E-01 at (50,9,39)
       Min divergence: -0.37E-01 at (26,7,40)
       Max VN number:   0.36E+00 at (32,37,40)
       Radiation Loss to Boundaries:        -3.283 kW
       Mesh    3
       Max CFL number:  0.96E-01 at (41,37,30)
       Max divergence:  0.70E-03 at (50,13,29)
       Min divergence: -0.93E-03 at (48,37,30)
       Max VN number:   0.59E-01 at (40,36,30)
       Radiation Loss to Boundaries:        -0.009 kW
       Mesh    4
       Max CFL number:  0.31E+00 at (22,2,40)
       Max divergence:  0.11E-01 at (26,7,39)
       Min divergence: -0.26E-01 at (1,46,7)
       Max VN number:   0.22E+00 at (14,17,40)
       Radiation Loss to Boundaries:        -4.544 kW
       Mesh    5
       Max CFL number:  0.24E+00 at (30,44,29)
       Max divergence:  0.16E-01 at (45,35,19)
       Min divergence: -0.25E-01 at (49,35,22)
       Max VN number:   0.23E+00 at (8,32,24)
       Radiation Loss to Boundaries:        -0.437 kW
       Mesh    6
       Max CFL number:  0.87E+00 at (43,19,40)
       Max divergence:  0.20E+01 at (29,8,1)
       Min divergence: -0.77E+00 at (27,5,4)
       Max VN number:   0.86E+00 at (30,1,39)
       Total Heat Release Rate:            148.691 kW
       Radiation Loss to Boundaries:       -53.510 kW
       Mesh    7
       Max CFL number:  0.14E+00 at (33,7,30)
       Max divergence:  0.81E-02 at (25,2,26)
       Min divergence: -0.84E-02 at (26,1,22)
       Max VN number:   0.75E-01 at (49,5,24)
       Radiation Loss to Boundaries:        -0.026 kW
       Mesh    8
       Max CFL number:  0.44E+00 at (46,4,40)
       Max divergence:  0.23E-01 at (27,47,22)
       Min divergence: -0.26E-01 at (50,46,10)
       Max VN number:   0.37E+00 at (50,6,34)
       Radiation Loss to Boundaries:        -4.642 kW
 
       Time Step   10000   October 10, 2022  11:29:16
       Step Size:    0.188E-01 s, Total Time:     175.89 s
       Pressure Iterations: 1
       Maximum Velocity Error:  0.42E-01 on Mesh 6 at (38,50,40)
       Maximum Pressure Error:  0.66E+02 on Mesh 6 at (15,1,40)
       ---------------------------------------------------------------
       Mesh    1
       Max CFL number:  0.20E+00 at (12,19,26)
       Max divergence:  0.12E-01 at (14,23,23)
       Min divergence: -0.12E-01 at (6,28,21)
       Max VN number:   0.17E+00 at (4,33,30)
       Radiation Loss to Boundaries:        -0.643 kW
       Mesh    2
       Max CFL number:  0.64E+00 at (35,21,40)
       Max divergence:  0.31E-01 at (42,8,37)
       Min divergence: -0.26E-01 at (42,7,36)
       Max VN number:   0.62E+00 at (34,20,40)
       Radiation Loss to Boundaries:        -3.322 kW
       Mesh    3
       Max CFL number:  0.96E-01 at (45,41,30)
       Max divergence:  0.40E-03 at (50,7,29)
       Min divergence: -0.70E-03 at (50,7,30)
       Max VN number:   0.55E-01 at (36,39,30)
       Radiation Loss to Boundaries:        -0.010 kW
       Mesh    4
       Max CFL number:  0.27E+00 at (12,18,40)
       Max divergence:  0.13E-01 at (1,43,9)
       Min divergence: -0.18E-01 at (1,42,9)
       Max VN number:   0.20E+00 at (18,4,40)
       Radiation Loss to Boundaries:        -4.546 kW
       Mesh    5
       Max CFL number:  0.23E+00 at (38,41,27)
       Max divergence:  0.19E-01 at (39,40,24)
       Min divergence: -0.19E-01 at (39,36,23)
       Max VN number:   0.23E+00 at (9,31,22)
       Radiation Loss to Boundaries:        -0.439 kW
       Mesh    6
       Max CFL number:  0.87E+00 at (25,3,27)
       Max divergence:  0.25E+01 at (27,7,1)
       Min divergence: -0.94E+00 at (21,4,4)
       Max VN number:   0.75E+00 at (21,1,38)
       Total Heat Release Rate:            149.590 kW
       Radiation Loss to Boundaries:       -52.528 kW
       Mesh    7
       Max CFL number:  0.14E+00 at (27,1,28)
       Max divergence:  0.66E-02 at (33,1,21)
       Min divergence: -0.11E-01 at (26,1,23)
       Max VN number:   0.95E-01 at (49,21,25)
       Radiation Loss to Boundaries:        -0.027 kW
       Mesh    8
       Max CFL number:  0.45E+00 at (50,7,40)
       Max divergence:  0.26E-01 at (17,50,13)
       Min divergence: -0.35E-01 at (26,49,19)
       Max VN number:   0.33E+00 at (35,50,8)
       Radiation Loss to Boundaries:        -4.671 kW
 
       Time Step   10100   October 10, 2022  11:31:06
       Step Size:    0.183E-01 s, Total Time:     177.73 s
       Pressure Iterations: 2
       Maximum Velocity Error:  0.37E-01 on Mesh 2 at (50,24,39)
       Maximum Pressure Error:  0.15E+03 on Mesh 6 at (30,1,26)
       ---------------------------------------------------------------
       Mesh    1
       Max CFL number:  0.19E+00 at (15,27,21)
       Max divergence:  0.99E-02 at (9,30,17)
       Min divergence: -0.10E-01 at (9,28,20)
       Max VN number:   0.20E+00 at (8,31,22)
       Radiation Loss to Boundaries:        -0.654 kW
       Mesh    2
       Max CFL number:  0.65E+00 at (49,25,40)
       Max divergence:  0.47E-01 at (49,16,39)
       Min divergence: -0.83E-01 at (49,16,40)
       Max VN number:   0.40E+00 at (49,23,40)
       Radiation Loss to Boundaries:        -3.435 kW
       Mesh    3
       Max CFL number:  0.89E-01 at (42,44,30)
       Max divergence:  0.60E-03 at (46,47,29)
       Min divergence: -0.80E-03 at (49,22,30)
       Max VN number:   0.60E-01 at (32,41,30)
       Radiation Loss to Boundaries:        -0.012 kW
       Mesh    4
       Max CFL number:  0.29E+00 at (39,1,40)
       Max divergence:  0.11E-01 at (2,50,10)
       Min divergence: -0.11E-01 at (2,38,10)
       Max VN number:   0.28E+00 at (50,12,40)
       Radiation Loss to Boundaries:        -4.552 kW
       Mesh    5
       Max CFL number:  0.24E+00 at (39,42,24)
       Max divergence:  0.25E-01 at (44,37,21)
       Min divergence: -0.28E-01 at (44,35,21)
       Max VN number:   0.28E+00 at (13,31,22)
       Radiation Loss to Boundaries:        -0.445 kW
       Mesh    6
       Max CFL number:  0.91E+00 at (30,1,24)
       Max divergence:  0.24E+01 at (32,5,1)
       Min divergence: -0.82E+00 at (22,6,7)
       Max VN number:   0.62E+00 at (13,1,38)
       Total Heat Release Rate:            150.850 kW
       Radiation Loss to Boundaries:       -54.793 kW
       Mesh    7
       Max CFL number:  0.15E+00 at (32,4,28)
       Max divergence:  0.39E-02 at (33,3,24)
       Min divergence: -0.62E-02 at (34,3,30)
       Max VN number:   0.99E-01 at (34,3,30)
       Radiation Loss to Boundaries:        -0.027 kW
       Mesh    8
       Max CFL number:  0.47E+00 at (3,12,40)
       Max divergence:  0.34E-01 at (33,49,13)
       Min divergence: -0.38E-01 at (35,50,9)
       Max VN number:   0.28E+00 at (44,7,40)
       Radiation Loss to Boundaries:        -4.729 kW
 
       Time Step   10200   October 10, 2022  11:32:39
       Step Size:    0.180E-01 s, Total Time:     179.51 s
       Pressure Iterations: 1
       Maximum Velocity Error:  0.35E-01 on Mesh 2 at (50,20,40)
       Maximum Pressure Error:  0.89E+02 on Mesh 6 at (30,1,33)
       ---------------------------------------------------------------
       Mesh    1
       Max CFL number:  0.17E+00 at (15,29,22)
       Max divergence:  0.13E-01 at (15,30,23)
       Min divergence: -0.11E-01 at (16,29,22)
       Max VN number:   0.18E+00 at (8,31,22)
       Radiation Loss to Boundaries:        -0.662 kW
       Mesh    2
       Max CFL number:  0.56E+00 at (44,1,39)
       Max divergence:  0.23E-01 at (31,29,37)
       Min divergence: -0.35E-01 at (43,11,40)
       Max VN number:   0.38E+00 at (41,10,40)
       Radiation Loss to Boundaries:        -3.465 kW
       Mesh    3
       Max CFL number:  0.83E-01 at (36,49,30)
       Max divergence:  0.65E-03 at (45,8,29)
       Min divergence: -0.12E-02 at (43,6,30)
       Max VN number:   0.61E-01 at (32,47,30)
       Radiation Loss to Boundaries:        -0.014 kW
       Mesh    4
       Max CFL number:  0.31E+00 at (25,11,40)
       Max divergence:  0.88E-02 at (9,38,13)
       Min divergence: -0.13E-01 at (1,46,11)
       Max VN number:   0.27E+00 at (45,2,40)
       Radiation Loss to Boundaries:        -4.577 kW
       Mesh    5
       Max CFL number:  0.26E+00 at (50,35,22)
       Max divergence:  0.20E-01 at (41,40,23)
       Min divergence: -0.19E-01 at (43,36,21)
       Max VN number:   0.24E+00 at (50,37,22)
       Radiation Loss to Boundaries:        -0.457 kW
       Mesh    6
       Max CFL number:  0.91E+00 at (29,2,30)
       Max divergence:  0.16E+01 at (23,9,1)
       Min divergence: -0.92E+00 at (22,6,4)
       Max VN number:   0.73E+00 at (49,1,39)
       Total Heat Release Rate:            149.733 kW
       Radiation Loss to Boundaries:       -54.451 kW
       Mesh    7
       Max CFL number:  0.16E+00 at (29,10,30)
       Max divergence:  0.57E-02 at (30,6,27)
       Min divergence: -0.64E-02 at (31,1,22)
       Max VN number:   0.74E-01 at (12,50,21)
       Radiation Loss to Boundaries:        -0.027 kW
       Mesh    8
       Max CFL number:  0.48E+00 at (43,5,40)
       Max divergence:  0.25E-01 at (29,50,13)
       Min divergence: -0.46E-01 at (30,50,11)
       Max VN number:   0.26E+00 at (50,3,33)
       Radiation Loss to Boundaries:        -4.682 kW
 
       Time Step   10229   October 10, 2022  11:33:02
       Step Size:    0.105E-01 s, Total Time:     180.00 s
       Pressure Iterations: 1
       Maximum Velocity Error:  0.33E-01 on Mesh 2 at (50,42,40)
       Maximum Pressure Error:  0.24E+03 on Mesh 6 at (27,4,1)
       ---------------------------------------------------------------
       Mesh    1
       Max CFL number:  0.94E-01 at (13,30,22)
       Max divergence:  0.84E-02 at (9,26,20)
       Min divergence: -0.10E-01 at (9,24,24)
       Max VN number:   0.93E-01 at (11,31,22)
       Radiation Loss to Boundaries:        -0.664 kW
       Mesh    2
       Max CFL number:  0.30E+00 at (50,13,40)
       Max divergence:  0.30E-01 at (48,36,39)
       Min divergence: -0.55E-01 at (49,13,40)
       Max VN number:   0.25E+00 at (49,12,40)
       Radiation Loss to Boundaries:        -3.455 kW
       Mesh    3
       Max CFL number:  0.53E-01 at (33,49,30)
       Max divergence:  0.65E-03 at (43,50,21)
       Min divergence: -0.15E-02 at (42,6,30)
       Max VN number:   0.30E-01 at (31,48,30)
       Radiation Loss to Boundaries:        -0.014 kW
       Mesh    4
       Max CFL number:  0.19E+00 at (39,1,40)
       Max divergence:  0.67E-02 at (37,4,38)
       Min divergence: -0.15E-01 at (42,8,37)
       Max VN number:   0.21E+00 at (40,2,40)
       Radiation Loss to Boundaries:        -4.587 kW
       Mesh    5
       Max CFL number:  0.14E+00 at (41,41,26)
       Max divergence:  0.22E-01 at (39,41,23)
       Min divergence: -0.24E-01 at (41,43,20)
       Max VN number:   0.12E+00 at (34,47,22)
       Radiation Loss to Boundaries:        -0.461 kW
       Mesh    6
       Max CFL number:  0.55E+00 at (30,5,32)
       Max divergence:  0.33E+01 at (23,5,1)
       Min divergence: -0.88E+00 at (29,4,4)
       Max VN number:   0.40E+00 at (26,4,1)
       Total Heat Release Rate:            155.166 kW
       Radiation Loss to Boundaries:       -54.095 kW
       Mesh    7
       Max CFL number:  0.97E-01 at (29,12,30)
       Max divergence:  0.64E-02 at (30,7,27)
       Min divergence: -0.59E-02 at (31,2,23)
       Max VN number:   0.48E-01 at (49,32,24)
       Radiation Loss to Boundaries:        -0.027 kW
       Mesh    8
       Max CFL number:  0.27E+00 at (45,12,40)
       Max divergence:  0.65E-01 at (28,50,13)
       Min divergence: -0.38E-01 at (28,50,10)
       Max VN number:   0.23E+00 at (44,13,40)
       Radiation Loss to Boundaries:        -4.664 kW
 


 Time Stepping Wall Clock Time (s):     8577.081
 Total Elapsed Wall Clock Time (s):     8586.794

STOP: FDS completed successfully (CHID: model)
