
 Fire Dynamics Simulator

 Current Date     : September  2, 2023  01:34:18
 Revision         : FDS6.7.9-0-gec52dee-HEAD
 Revision Date    : Sun Jun 26 14:36:40 2022 -0400
 Compiler         : ifort version 2021.2.0
 Compilation Date : Jun 30, 2022 15:04:40

 MPI Enabled;    Number of MPI Processes:       8
 OpenMP Disabled

 MPI version: 3.1
 MPI library version: Intel(R) MPI Library 2021.2 for Linux* OS


 Job TITLE        : model
 Job ID string    : model


 Grid Dimensions, Mesh     1

   Cells in the X Direction            25
   Cells in the Y Direction            25
   Cells in the Z Direction            15
   Number of Grid Cells              9375


 Physical Dimensions, Mesh     1

   Length (m)                       5.000
   Width  (m)                       5.000
   Height (m)                       3.000
   Initial Time Step (s)            0.158

 Grid Dimensions, Mesh     2

   Cells in the X Direction            25
   Cells in the Y Direction            25
   Cells in the Z Direction            20
   Number of Grid Cells             12500


 Physical Dimensions, Mesh     2

   Length (m)                       5.000
   Width  (m)                       5.000
   Height (m)                       4.000
   Initial Time Step (s)            0.158

 Grid Dimensions, Mesh     3

   Cells in the X Direction            25
   Cells in the Y Direction            25
   Cells in the Z Direction            15
   Number of Grid Cells              9375


 Physical Dimensions, Mesh     3

   Length (m)                       5.000
   Width  (m)                       5.000
   Height (m)                       3.000
   Initial Time Step (s)            0.158

 Grid Dimensions, Mesh     4

   Cells in the X Direction            25
   Cells in the Y Direction            25
   Cells in the Z Direction            20
   Number of Grid Cells             12500


 Physical Dimensions, Mesh     4

   Length (m)                       5.000
   Width  (m)                       5.000
   Height (m)                       4.000
   Initial Time Step (s)            0.158

 Grid Dimensions, Mesh     5

   Cells in the X Direction            25
   Cells in the Y Direction            25
   Cells in the Z Direction            15
   Number of Grid Cells              9375


 Physical Dimensions, Mesh     5

   Length (m)                       5.000
   Width  (m)                       5.000
   Height (m)                       3.000
   Initial Time Step (s)            0.158

 Grid Dimensions, Mesh     6

   Cells in the X Direction            25
   Cells in the Y Direction            25
   Cells in the Z Direction            20
   Number of Grid Cells             12500


 Physical Dimensions, Mesh     6

   Length (m)                       5.000
   Width  (m)                       5.000
   Height (m)                       4.000
   Initial Time Step (s)            0.158

 Grid Dimensions, Mesh     7

   Cells in the X Direction            25
   Cells in the Y Direction            25
   Cells in the Z Direction            15
   Number of Grid Cells              9375


 Physical Dimensions, Mesh     7

   Length (m)                       5.000
   Width  (m)                       5.000
   Height (m)                       3.000
   Initial Time Step (s)            0.158

 Grid Dimensions, Mesh     8

   Cells in the X Direction            25
   Cells in the Y Direction            25
   Cells in the Z Direction            20
   Number of Grid Cells             12500


 Physical Dimensions, Mesh     8

   Length (m)                       5.000
   Width  (m)                       5.000
   Height (m)                       4.000
   Initial Time Step (s)            0.158

 Total Number of Grid Cells         87500


 Maximum Cell Aspect Ratio          1.000
 CFL Velocity Norm                      2


 Miscellaneous Parameters

   Simulation Start Time (s)          0.0
   Simulation End Time (s)          500.0
   Background Pressure (Pa)     101325.00
   Ambient Temperature (C)          20.00

   3D Cartesian
   VLES Calculation
   Eddy Viscosity: Deardorff Model (C_DEARDORFF = 0.10)
   Surface INERT Eddy Viscosity: WALE Model (C_WALE = 0.60)
   Surface surf_concrete_wall_inside Eddy Viscosity: WALE Model (C_WALE = 0.60)
   Surface surf_concrete_wall_outside Eddy Viscosity: WALE Model (C_WALE = 0.60)
   Surface surf_fire Eddy Viscosity: WALE Model (C_WALE = 0.60)
   Turbulent Prandtl Number:         0.50
   Turbulent Schmidt Number:         0.50


 Background Stratification

      Z (m)     P_0 (Pa)    TMP_0 (C)
   ------------------------------------
        2.90    101291.00     20.00
        2.70    101293.35     20.00
        2.50    101295.69     20.00
        2.30    101298.03     20.00
        2.10    101300.38     20.00
        1.90    101302.72     20.00
        1.70    101305.07     20.00
        1.50    101307.41     20.00
        1.30    101309.75     20.00
        1.10    101312.10     20.00
        0.90    101314.44     20.00
        0.70    101316.79     20.00
        0.50    101319.13     20.00
        0.30    101321.47     20.00
        0.10    101323.82     20.00


 Mass Fraction Transformation Matrix to Convert Species Mixtures (Columns) to Primitive Species (Rows)

                         AIR       N-HEPTAN  PRODUCTS
   N-HEPTANE             0.000000  1.000000  0.000000
   NITROGEN              0.762470  0.000000  0.714020
   OXYGEN                0.230997  0.000000  0.000000
   CARBON DIOXIDE        0.000591  0.000000  0.186689
   WATER VAPOR           0.005941  0.000000  0.096750
   CARBON MONOXIDE       0.000000  0.000000  0.000000
   SOOT                  0.000000  0.000000  0.002542
   HYDROGEN              0.000000  0.000000  0.000000
   HYDROGEN CYANIDE      0.000000  0.000000  0.000000


 Primitive Species Information

   N-HEPTANE
   Gas Species
   Molecular Weight (g/mol)           100.20194
   Ambient Density (kg/m^3)            4.166
   Enthalpy of Formation (J/kg)       -1.87E+06

   NITROGEN
   Gas Species
   Molecular Weight (g/mol)            28.01340
   Ambient Density (kg/m^3)            1.165
   Enthalpy of Formation (J/kg)        0.00E+00

   OXYGEN
   Gas Species
   Molecular Weight (g/mol)            31.99880
   Ambient Density (kg/m^3)            1.330
   Enthalpy of Formation (J/kg)        0.00E+00

   CARBON DIOXIDE
   Gas Species
   Molecular Weight (g/mol)            44.00950
   Ambient Density (kg/m^3)            1.830
   Enthalpy of Formation (J/kg)       -8.94E+06

   WATER VAPOR
   Gas Species
   Molecular Weight (g/mol)            18.01528
   Ambient Density (kg/m^3)            0.749
   Enthalpy of Formation (J/kg)       -1.34E+07

   CARBON MONOXIDE
   Gas Species
   Molecular Weight (g/mol)            28.01010
   Ambient Density (kg/m^3)            1.164
   Enthalpy of Formation (J/kg)       -3.95E+06

   SOOT
   Gas Species
   Molecular Weight (g/mol)            10.91042
   Ambient Density (kg/m^3)            0.454
   Enthalpy of Formation (J/kg)        0.00E+00

   HYDROGEN
   Gas Species
   Molecular Weight (g/mol)             2.01588
   Ambient Density (kg/m^3)            0.084
   Enthalpy of Formation (J/kg)        0.00E+00

   HYDROGEN CYANIDE
   Gas Species
   Molecular Weight (g/mol)            27.02534
   Ambient Density (kg/m^3)            1.123
   Enthalpy of Formation (J/kg)        4.92E+06


 Tracked (Lumped) Species Information

   AIR
   Molecular Weight (g/mol)            28.75198
   Ambient Density (kg/m^3)            1.195
   Initial Mass Fraction               1.000
   Enthalpy of Formation (J/kg)     -8.50E+04

   Sub Species                    Mass Fraction     Mole Fraction
   NITROGEN                       7.624699E-01      7.825727E-01
   OXYGEN                         2.309974E-01      2.075588E-01
   CARBON DIOXIDE                 5.914650E-04      3.864118E-04
   WATER VAPOR                    5.941209E-03      9.482037E-03
 
     Viscosity (kg/m/s) Ambient,  293 K:  1.80E-05
                                  500 K:  2.61E-05
                                 1000 K:  4.13E-05
                                 1500 K:  5.37E-05
   Therm. Cond. (W/m/K) Ambient,  293 K:  2.56E-02
                                  500 K:  3.81E-02
                                 1000 K:  6.69E-02
                                 1500 K:  9.25E-02
        Enthalpy (J/kg) Ambient,  293 K: -9.01E+04
                                  500 K:  1.22E+05
                                 1000 K:  6.72E+05
                                 1500 K:  1.27E+06
    Spec. Heat (J/kg/K) Ambient,  293 K:  1.02E+03
                                  500 K:  1.04E+03
                                 1000 K:  1.16E+03
                                 1500 K:  1.23E+03
   Diff. Coeff. (m^2/s) Ambient,  293 K:  1.99E-05
                                  500 K:  4.96E-05
                                 1000 K:  1.58E-04
                                 1500 K:  3.09E-04

   N-HEPTANE
   Molecular Weight (g/mol)           100.20194
   Ambient Density (kg/m^3)            4.166
   Initial Mass Fraction               0.000
   Enthalpy of Formation (J/kg)     -1.87E+06

   Sub Species                    Mass Fraction     Mole Fraction
   N-HEPTANE                      1.000000E+00      1.000000E+00
 
     Viscosity (kg/m/s) Ambient,  293 K:  1.54E-05
                                  500 K:  2.45E-05
                                 1000 K:  4.11E-05
                                 1500 K:  5.41E-05
   Therm. Cond. (W/m/K) Ambient,  293 K:  3.02E-02
                                  500 K:  7.42E-02
                                 1000 K:  1.89E-01
                                 1500 K:  2.89E-01
        Enthalpy (J/kg) Ambient,  293 K: -1.88E+06
                                  500 K: -1.45E+06
                                 1000 K:  1.74E+05
                                 1500 K:  2.25E+06
    Spec. Heat (J/kg/K) Ambient,  293 K:  1.63E+03
                                  500 K:  2.52E+03
                                 1000 K:  3.81E+03
                                 1500 K:  4.43E+03
   Diff. Coeff. (m^2/s) Ambient,  293 K:  1.10E-05
                                  500 K:  2.83E-05
                                 1000 K:  9.18E-05
                                 1500 K:  1.80E-04

   PRODUCTS
   Molecular Weight (g/mol)            28.30142
   Ambient Density (kg/m^3)            1.177
   Initial Mass Fraction               0.000
   Enthalpy of Formation (J/kg)     -2.97E+06

   Sub Species                    Mass Fraction     Mole Fraction
   NITROGEN                       7.140198E-01      7.213611E-01
   CARBON DIOXIDE                 1.866886E-01      1.200549E-01
   WATER VAPOR                    9.674979E-02      1.519908E-01
   CARBON MONOXIDE                0.000000E+00      0.000000E+00
   SOOT                           2.541746E-03      6.593238E-03
   HYDROGEN CYANIDE               0.000000E+00      0.000000E+00
 
     Viscosity (kg/m/s) Ambient,  293 K:  1.61E-05
                                  500 K:  2.39E-05
                                 1000 K:  3.89E-05
                                 1500 K:  5.14E-05
   Therm. Cond. (W/m/K) Ambient,  293 K:  2.34E-02
                                  500 K:  3.62E-02
                                 1000 K:  6.70E-02
                                 1500 K:  9.60E-02
        Enthalpy (J/kg) Ambient,  293 K: -2.97E+06
                                  500 K: -2.74E+06
                                 1000 K: -2.14E+06
                                 1500 K: -1.46E+06
    Spec. Heat (J/kg/K) Ambient,  293 K:  1.08E+03
                                  500 K:  1.14E+03
                                 1000 K:  1.29E+03
                                 1500 K:  1.39E+03
   Diff. Coeff. (m^2/s) Ambient,  293 K:  1.95E-05
                                  500 K:  4.95E-05
                                 1000 K:  1.60E-04
                                 1500 K:  3.14E-04


 Gas Phase Reaction Information

      Fuel                                           Heat of Combustion (kJ/kg)
      N-HEPTANE                                                      43580.5083

      Primitive Species Stoich. Coeff.
      Species ID                                                          Molar
      N-HEPTANE                                                       -1.000000
      NITROGEN                                                        -0.000000
      OXYGEN                                                         -10.660190
      CARBON DIOXIDE                                                   6.669374
      WATER VAPOR                                                      7.981632
      SOOT                                                             0.367362

      Tracked (Lumped) Species Stoich. Coeff.
      Species ID                                             Molar         Mass
      AIR                                               -51.359850   -14.737215
      N-HEPTANE                                          -1.000000    -1.000000
      PRODUCTS                                           55.718028    15.737215

      Reaction Kinetics

      Fast chemistry

      ODE Solver:  EXPLICIT EULER
      Extinction Model:  EXTINCTION 2
      Auto-Ignition Temperature (K):       0.0
      Critical Flame Temperature (K):   1770.2

      Prescribed Radiative Fraction:     0.400


 Material Information

   1 matl_concrete
     Emissivity                      0.900
     Density (kg/m3)                  24.0
     Specific Heat (kJ/kg/K)       1.05E+00
     Conductivity (W/m/K)          5.00E-01


 Surface Conditions

   0 INERT (DEFAULT)

   1 surf_concrete_wall_inside
     Material List
          1  matl_concrete
     Layer  1
        Thickness   (m):  0.10000
        Density (kg/m3):    24.00
        matl_concrete, Mass fraction:    1.00
     Total surface density     2.400 kg/m2
     Reaction products considered from the first  0.50 layers.
     Solid Phase Node, Layer, Coordinates(m):
                    0      1       0.0000000
                    1      1       0.0033333
                    2      1       0.0100000
                    3      1       0.0233333
                    4      1       0.0500000
                    5      1       0.0766667
                    6      1       0.0900000
                    7      1       0.0966667
                    8      1       0.1000000
     Exposed Backing

   2 surf_concrete_wall_outside
     Material List
          1  matl_concrete
     Layer  1
        Thickness   (m):  0.14000
        Density (kg/m3):    24.00
        matl_concrete, Mass fraction:    1.00
     Total surface density     3.360 kg/m2
     Solid Phase Node, Layer, Coordinates(m):
                    0      1       0.0000000
                    1      1       0.0030435
                    2      1       0.0091304
                    3      1       0.0213043
                    4      1       0.0456522
                    5      1       0.0943478
                    6      1       0.1186957
                    7      1       0.1308696
                    8      1       0.1369565
                    9      1       0.1400000
     Backing to void

   3 surf_fire
     HRR Per Unit Area (kW/m2)        208.0
     N-HEPTANE Mass Flux (kg/s/m2)   4.77E-03

   4 OPEN
     Passive Vent to Atmosphere

   5 MIRROR
     Symmetry Plane

   6 INTERPOLATED

   7 PERIODIC

   8 HVAC

   9 MASSLESS TRACER

  10 DROPLET

  11 MASSLESS TARGET

  12 PERIODIC FLOW ONLY


 Lagrangian Particle Classes


 Cut-off Density and Temperature

    Minimum Temperature:   -10.0 C
    Maximum Temperature:  2726.8 C
    Minimum Density:  1.195E-01 kg/m3
    Maximum Density:  9.281E+00 kg/m3


 Slice File Information, Mesh     1

   1 Nodes:   0  25   0  25  11  11, Quantity: TEMPERATURE
   2 Nodes:   0  25   0  25  11  11, Quantity: SOOT VISIBILITY
   3 Nodes:   0  25   0  25  11  11, Quantity: SOOT EXTINCTION COEFFICIENT


 Radiation Model Information

   Number of control angles  104
   Time step increment         3
   Angle increment             5
   Theta band N_phi   Solid angle
     1:        4     0.120
     2:       12     0.114
     3:       16     0.127
     4:       20     0.120
     5:       20     0.120
     6:       16     0.127
     7:       12     0.114
     8:        4     0.120
   Using gray gas absorption.
   Mean beam length  1.000E-01 m
 
 

 Run Time Diagnostics

       Time Step       1   September  2, 2023  01:34:19
       Step Size:    0.158E+00 s, Total Time:       0.16 s
       Pressure Iterations: 1
       Maximum Velocity Error:  0.38E-02 on Mesh 5 at (24,25,15)
       Maximum Pressure Error:  0.68E-05 on Mesh 1 at (4,4,1)
       ---------------------------------------------------------------
       Mesh    1
       Max CFL number:  0.20E-01 at (18,2,12)
       Max divergence:  0.16E-05 at (23,3,2)
       Min divergence: -0.89E-05 at (3,4,1)
       Max VN number:   0.25E-01 at (24,8,6)
       Mesh    2
       Max CFL number:  0.19E-01 at (13,20,9)
       Max divergence:  0.17E-05 at (17,19,2)
       Min divergence: -0.17E-05 at (7,20,19)
       Max VN number:   0.21E-01 at (23,1,17)
       Radiation Loss to Boundaries:        -0.003 kW
       Mesh    3
       Max CFL number:  0.20E-01 at (11,11,2)
       Max divergence:  0.16E-05 at (15,14,2)
       Min divergence: -0.21E-05 at (23,7,14)
       Max VN number:   0.22E-01 at (13,18,1)
       Radiation Loss to Boundaries:        -0.003 kW
       Mesh    4
       Max CFL number:  0.19E-01 at (17,15,14)
       Max divergence:  0.15E-05 at (4,6,2)
       Min divergence: -0.18E-05 at (14,14,19)
       Max VN number:   0.17E-01 at (11,18,20)
       Radiation Loss to Boundaries:        -0.003 kW
       Mesh    5
       Max CFL number:  0.20E-01 at (21,22,6)
       Max divergence:  0.15E-05 at (5,22,2)
       Min divergence: -0.15E-05 at (5,19,14)
       Max VN number:   0.22E-01 at (12,25,5)
       Radiation Loss to Boundaries:        -0.001 kW
       Mesh    6
       Max CFL number:  0.19E-01 at (10,20,2)
       Max divergence:  0.21E-05 at (4,3,2)
       Min divergence: -0.19E-05 at (19,17,19)
       Max VN number:   0.18E-01 at (4,1,10)
       Radiation Loss to Boundaries:        -0.003 kW
       Mesh    7
       Max CFL number:  0.20E-01 at (4,22,3)
       Max divergence:  0.16E-05 at (6,10,2)
       Min divergence: -0.19E-05 at (20,13,14)
       Max VN number:   0.23E-01 at (24,13,11)
       Radiation Loss to Boundaries:        -0.003 kW
       Mesh    8
       Max CFL number:  0.19E-01 at (3,19,11)
       Max divergence:  0.14E-05 at (1,19,2)
       Min divergence: -0.19E-05 at (8,7,19)
       Max VN number:   0.20E-01 at (5,25,6)
       Radiation Loss to Boundaries:        -0.004 kW
 
       Time Step       2   September  2, 2023  01:34:19
       Step Size:    0.158E+00 s, Total Time:       0.32 s
       Pressure Iterations: 1
       Maximum Velocity Error:  0.18E-02 on Mesh 1 at (9,25,8)
       Maximum Pressure Error:  0.28E-03 on Mesh 1 at (4,4,1)
       ---------------------------------------------------------------
       Mesh    1
       Max CFL number:  0.20E-01 at (18,2,12)
       Max divergence:  0.13E-02 at (4,4,1)
       Min divergence: -0.16E-05 at (6,7,14)
       Max VN number:   0.22E-01 at (3,16,5)
       Total Heat Release Rate:              0.043 kW
       Mesh    2
       Max CFL number:  0.19E-01 at (13,20,9)
       Max divergence:  0.17E-05 at (17,19,2)
       Min divergence: -0.17E-05 at (7,20,19)
       Max VN number:   0.21E-01 at (23,1,17)
       Radiation Loss to Boundaries:        -0.003 kW
       Mesh    3
       Max CFL number:  0.20E-01 at (11,11,2)
       Max divergence:  0.16E-05 at (15,14,2)
       Min divergence: -0.21E-05 at (23,7,14)
       Max VN number:   0.22E-01 at (13,18,1)
       Radiation Loss to Boundaries:        -0.003 kW
       Mesh    4
       Max CFL number:  0.19E-01 at (17,15,14)
       Max divergence:  0.15E-05 at (4,6,2)
       Min divergence: -0.18E-05 at (14,14,19)
       Max VN number:   0.17E-01 at (11,18,20)
       Radiation Loss to Boundaries:        -0.003 kW
       Mesh    5
       Max CFL number:  0.20E-01 at (21,22,6)
       Max divergence:  0.15E-05 at (5,22,2)
       Min divergence: -0.15E-05 at (12,6,14)
       Max VN number:   0.21E-01 at (12,25,5)
       Radiation Loss to Boundaries:        -0.001 kW
       Mesh    6
       Max CFL number:  0.19E-01 at (10,20,2)
       Max divergence:  0.21E-05 at (4,3,2)
       Min divergence: -0.19E-05 at (19,17,19)
       Max VN number:   0.18E-01 at (4,1,10)
       Radiation Loss to Boundaries:        -0.003 kW
       Mesh    7
       Max CFL number:  0.20E-01 at (4,22,3)
       Max divergence:  0.16E-05 at (6,10,2)
       Min divergence: -0.19E-05 at (20,13,14)
       Max VN number:   0.21E-01 at (21,16,15)
       Radiation Loss to Boundaries:        -0.003 kW
       Mesh    8
       Max CFL number:  0.19E-01 at (3,19,11)
       Max divergence:  0.14E-05 at (1,19,2)
       Min divergence: -0.18E-05 at (8,7,19)
       Max VN number:   0.20E-01 at (5,25,6)
       Radiation Loss to Boundaries:        -0.004 kW
 
       Time Step       3   September  2, 2023  01:34:19
       Step Size:    0.158E+00 s, Total Time:       0.47 s
       Pressure Iterations: 1
       Maximum Velocity Error:  0.19E-02 on Mesh 1 at (25,17,8)
       Maximum Pressure Error:  0.16E-04 on Mesh 1 at (4,4,1)
       ---------------------------------------------------------------
       Mesh    1
       Max CFL number:  0.20E-01 at (18,2,12)
       Max divergence:  0.26E-02 at (4,5,1)
       Min divergence: -0.16E-05 at (6,7,14)
       Max VN number:   0.19E-01 at (18,23,5)
       Total Heat Release Rate:              0.090 kW
       Mesh    2
       Max CFL number:  0.19E-01 at (13,20,9)
       Max divergence:  0.17E-05 at (17,19,2)
       Min divergence: -0.17E-05 at (7,20,19)
       Max VN number:   0.21E-01 at (23,1,17)
       Radiation Loss to Boundaries:        -0.002 kW
       Mesh    3
       Max CFL number:  0.20E-01 at (11,11,2)
       Max divergence:  0.17E-05 at (8,2,2)
       Min divergence: -0.21E-05 at (23,7,14)
       Max VN number:   0.22E-01 at (13,18,1)
       Radiation Loss to Boundaries:        -0.002 kW
       Mesh    4
       Max CFL number:  0.19E-01 at (17,15,14)
       Max divergence:  0.15E-05 at (4,6,2)
       Min divergence: -0.18E-05 at (14,14,19)
       Max VN number:   0.17E-01 at (11,18,20)
       Radiation Loss to Boundaries:        -0.002 kW
       Mesh    5
       Max CFL number:  0.20E-01 at (21,22,6)
       Max divergence:  0.15E-05 at (5,22,2)
       Min divergence: -0.15E-05 at (12,6,14)
       Max VN number:   0.20E-01 at (24,11,9)
       Mesh    6
       Max CFL number:  0.19E-01 at (10,20,2)
       Max divergence:  0.22E-05 at (4,3,2)
       Min divergence: -0.19E-05 at (19,17,19)
       Max VN number:   0.18E-01 at (4,1,10)
       Radiation Loss to Boundaries:        -0.002 kW
       Mesh    7
       Max CFL number:  0.20E-01 at (4,22,3)
       Max divergence:  0.16E-05 at (6,10,2)
       Min divergence: -0.19E-05 at (20,13,14)
       Max VN number:   0.21E-01 at (21,16,15)
       Radiation Loss to Boundaries:        -0.002 kW
       Mesh    8
       Max CFL number:  0.19E-01 at (3,19,11)
       Max divergence:  0.15E-05 at (3,7,2)
       Min divergence: -0.18E-05 at (8,7,19)
       Max VN number:   0.20E-01 at (5,25,6)
       Radiation Loss to Boundaries:        -0.002 kW
 
       Time Step       4   September  2, 2023  01:34:19
       Step Size:    0.158E+00 s, Total Time:       0.63 s
       Pressure Iterations: 1
       Maximum Velocity Error:  0.11E-02 on Mesh 5 at (24,25,15)
       Maximum Pressure Error:  0.37E-04 on Mesh 1 at (4,4,1)
       ---------------------------------------------------------------
       Mesh    1
       Max CFL number:  0.19E-01 at (18,2,12)
       Max divergence:  0.42E-02 at (4,5,1)
       Min divergence: -0.16E-05 at (6,7,14)
       Max VN number:   0.19E-01 at (3,16,5)
       Total Heat Release Rate:              0.144 kW
       Mesh    2
       Max CFL number:  0.19E-01 at (13,20,9)
       Max divergence:  0.17E-05 at (17,19,2)
       Min divergence: -0.17E-05 at (7,20,19)
       Max VN number:   0.21E-01 at (23,1,17)
       Radiation Loss to Boundaries:        -0.002 kW
       Mesh    3
       Max CFL number:  0.20E-01 at (11,11,2)
       Max divergence:  0.17E-05 at (8,2,2)
       Min divergence: -0.21E-05 at (23,7,14)
       Max VN number:   0.22E-01 at (13,18,1)
       Radiation Loss to Boundaries:        -0.002 kW
       Mesh    4
       Max CFL number:  0.19E-01 at (17,15,14)
       Max divergence:  0.15E-05 at (4,6,2)
       Min divergence: -0.18E-05 at (14,14,19)
       Max VN number:   0.17E-01 at (11,18,20)
       Radiation Loss to Boundaries:        -0.002 kW
       Mesh    5
       Max CFL number:  0.20E-01 at (21,22,6)
       Max divergence:  0.15E-05 at (5,22,2)
       Min divergence: -0.15E-05 at (12,6,14)
       Max VN number:   0.20E-01 at (24,11,9)
       Mesh    6
       Max CFL number:  0.19E-01 at (10,20,2)
       Max divergence:  0.22E-05 at (4,3,2)
       Min divergence: -0.19E-05 at (19,17,19)
       Max VN number:   0.18E-01 at (4,1,10)
       Radiation Loss to Boundaries:        -0.002 kW
       Mesh    7
       Max CFL number:  0.20E-01 at (4,22,3)
       Max divergence:  0.16E-05 at (6,10,2)
       Min divergence: -0.19E-05 at (20,13,14)
       Max VN number:   0.21E-01 at (21,16,15)
       Radiation Loss to Boundaries:        -0.002 kW
       Mesh    8
       Max CFL number:  0.19E-01 at (3,19,11)
       Max divergence:  0.15E-05 at (3,7,2)
       Min divergence: -0.18E-05 at (8,7,19)
       Max VN number:   0.21E-01 at (5,25,6)
       Radiation Loss to Boundaries:        -0.002 kW
 
       Time Step       5   September  2, 2023  01:34:19
       Step Size:    0.158E+00 s, Total Time:       0.79 s
       Pressure Iterations: 1
       Maximum Velocity Error:  0.81E-03 on Mesh 5 at (24,25,3)
       Maximum Pressure Error:  0.18E-03 on Mesh 1 at (4,4,1)
       ---------------------------------------------------------------
       Mesh    1
       Max CFL number:  0.19E-01 at (18,2,12)
       Max divergence:  0.57E-02 at (4,5,1)
       Min divergence: -0.16E-05 at (6,7,14)
       Max VN number:   0.19E-01 at (3,16,5)
       Total Heat Release Rate:              0.196 kW
       Mesh    2
       Max CFL number:  0.19E-01 at (13,20,9)
       Max divergence:  0.17E-05 at (17,19,2)
       Min divergence: -0.17E-05 at (7,20,19)
       Max VN number:   0.21E-01 at (23,1,17)
       Radiation Loss to Boundaries:        -0.002 kW
       Mesh    3
       Max CFL number:  0.20E-01 at (11,11,2)
       Max divergence:  0.17E-05 at (8,2,2)
       Min divergence: -0.20E-05 at (23,7,14)
       Max VN number:   0.22E-01 at (13,18,1)
       Radiation Loss to Boundaries:        -0.002 kW
       Mesh    4
       Max CFL number:  0.19E-01 at (17,15,14)
       Max divergence:  0.15E-05 at (4,6,2)
       Min divergence: -0.18E-05 at (14,14,19)
       Max VN number:   0.17E-01 at (11,18,20)
       Radiation Loss to Boundaries:        -0.002 kW
       Mesh    5
       Max CFL number:  0.20E-01 at (21,22,6)
       Max divergence:  0.15E-05 at (5,22,2)
       Min divergence: -0.15E-05 at (12,6,14)
       Max VN number:   0.20E-01 at (24,11,9)
       Mesh    6
       Max CFL number:  0.19E-01 at (10,20,2)
       Max divergence:  0.22E-05 at (4,3,2)
       Min divergence: -0.19E-05 at (19,17,19)
       Max VN number:   0.18E-01 at (4,1,10)
       Radiation Loss to Boundaries:        -0.002 kW
       Mesh    7
       Max CFL number:  0.20E-01 at (4,22,3)
       Max divergence:  0.16E-05 at (6,10,2)
       Min divergence: -0.19E-05 at (20,13,14)
       Max VN number:   0.21E-01 at (21,16,15)
       Radiation Loss to Boundaries:        -0.002 kW
       Mesh    8
       Max CFL number:  0.19E-01 at (3,19,11)
       Max divergence:  0.15E-05 at (3,7,2)
       Min divergence: -0.18E-05 at (8,7,19)
       Max VN number:   0.21E-01 at (5,25,6)
       Radiation Loss to Boundaries:        -0.002 kW
 
       Time Step       6   September  2, 2023  01:34:19
       Step Size:    0.158E+00 s, Total Time:       0.95 s
       Pressure Iterations: 1
       Maximum Velocity Error:  0.79E-03 on Mesh 1 at (12,25,1)
       Maximum Pressure Error:  0.27E-03 on Mesh 1 at (4,4,1)
       ---------------------------------------------------------------
       Mesh    1
       Max CFL number:  0.19E-01 at (18,2,12)
       Max divergence:  0.72E-02 at (4,5,1)
       Min divergence: -0.16E-05 at (6,7,14)
       Max VN number:   0.19E-01 at (3,16,5)
       Total Heat Release Rate:              0.247 kW
       Mesh    2
       Max CFL number:  0.19E-01 at (13,20,9)
       Max divergence:  0.17E-05 at (17,19,2)
       Min divergence: -0.16E-05 at (7,20,19)
       Max VN number:   0.21E-01 at (23,1,17)
       Radiation Loss to Boundaries:        -0.002 kW
       Mesh    3
       Max CFL number:  0.20E-01 at (11,11,2)
       Max divergence:  0.17E-05 at (8,2,2)
       Min divergence: -0.20E-05 at (23,7,14)
       Max VN number:   0.22E-01 at (13,18,1)
       Radiation Loss to Boundaries:        -0.002 kW
       Mesh    4
       Max CFL number:  0.19E-01 at (17,15,14)
       Max divergence:  0.15E-05 at (4,6,2)
       Min divergence: -0.18E-05 at (14,14,19)
       Max VN number:   0.17E-01 at (11,18,20)
       Radiation Loss to Boundaries:        -0.001 kW
       Mesh    5
       Max CFL number:  0.20E-01 at (21,22,6)
       Max divergence:  0.15E-05 at (5,22,2)
       Min divergence: -0.15E-05 at (12,6,14)
       Max VN number:   0.20E-01 at (24,11,9)
       Mesh    6
       Max CFL number:  0.19E-01 at (10,20,2)
       Max divergence:  0.22E-05 at (4,3,2)
       Min divergence: -0.19E-05 at (19,17,19)
       Max VN number:   0.18E-01 at (4,1,10)
       Radiation Loss to Boundaries:        -0.002 kW
       Mesh    7
       Max CFL number:  0.20E-01 at (4,22,3)
       Max divergence:  0.16E-05 at (6,10,2)
       Min divergence: -0.19E-05 at (20,13,14)
       Max VN number:   0.21E-01 at (21,16,15)
       Radiation Loss to Boundaries:        -0.002 kW
       Mesh    8
       Max CFL number:  0.18E-01 at (13,20,18)
       Max divergence:  0.15E-05 at (3,7,2)
       Min divergence: -0.18E-05 at (8,7,19)
       Max VN number:   0.21E-01 at (5,25,6)
       Radiation Loss to Boundaries:        -0.002 kW
 
       Time Step       7   September  2, 2023  01:34:19
       Step Size:    0.158E+00 s, Total Time:       1.11 s
       Pressure Iterations: 1
       Maximum Velocity Error:  0.64E-03 on Mesh 5 at (24,25,14)
       Maximum Pressure Error:  0.39E-03 on Mesh 1 at (4,4,1)
       ---------------------------------------------------------------
       Mesh    1
       Max CFL number:  0.19E-01 at (18,2,12)
       Max divergence:  0.86E-02 at (4,5,1)
       Min divergence: -0.16E-05 at (6,7,14)
       Max VN number:   0.19E-01 at (3,16,5)
       Total Heat Release Rate:              0.297 kW
       Mesh    2
       Max CFL number:  0.19E-01 at (13,20,9)
       Max divergence:  0.17E-05 at (17,19,2)
       Min divergence: -0.16E-05 at (7,20,19)
       Max VN number:   0.21E-01 at (23,1,17)
       Radiation Loss to Boundaries:        -0.002 kW
       Mesh    3
       Max CFL number:  0.20E-01 at (11,11,2)
       Max divergence:  0.17E-05 at (8,2,2)
       Min divergence: -0.20E-05 at (23,7,14)
       Max VN number:   0.22E-01 at (13,18,1)
       Radiation Loss to Boundaries:        -0.002 kW
       Mesh    4
       Max CFL number:  0.19E-01 at (17,15,14)
       Max divergence:  0.15E-05 at (4,6,2)
       Min divergence: -0.18E-05 at (14,14,19)
       Max VN number:   0.17E-01 at (11,18,20)
       Radiation Loss to Boundaries:        -0.001 kW
       Mesh    5
       Max CFL number:  0.20E-01 at (21,22,6)
       Max divergence:  0.15E-05 at (5,22,2)
       Min divergence: -0.15E-05 at (12,6,14)
       Max VN number:   0.20E-01 at (24,11,9)
       Mesh    6
       Max CFL number:  0.19E-01 at (10,20,2)
       Max divergence:  0.22E-05 at (4,3,2)
       Min divergence: -0.19E-05 at (19,17,19)
       Max VN number:   0.18E-01 at (4,1,10)
       Radiation Loss to Boundaries:        -0.002 kW
       Mesh    7
       Max CFL number:  0.20E-01 at (4,22,3)
       Max divergence:  0.16E-05 at (6,10,2)
       Min divergence: -0.19E-05 at (20,13,14)
       Max VN number:   0.21E-01 at (21,16,15)
       Radiation Loss to Boundaries:        -0.002 kW
       Mesh    8
       Max CFL number:  0.18E-01 at (13,20,18)
       Max divergence:  0.15E-05 at (3,7,2)
       Min divergence: -0.18E-05 at (8,7,19)
       Max VN number:   0.21E-01 at (5,25,6)
       Radiation Loss to Boundaries:        -0.002 kW
 
       Time Step       8   September  2, 2023  01:34:19
       Step Size:    0.158E+00 s, Total Time:       1.26 s
       Pressure Iterations: 1
       Maximum Velocity Error:  0.38E-03 on Mesh 5 at (24,25,13)
       Maximum Pressure Error:  0.55E-03 on Mesh 1 at (4,4,1)
       ---------------------------------------------------------------
       Mesh    1
       Max CFL number:  0.19E-01 at (18,2,12)
       Max divergence:  0.10E-01 at (4,5,1)
       Min divergence: -0.16E-05 at (6,7,14)
       Max VN number:   0.19E-01 at (3,16,5)
       Total Heat Release Rate:              0.347 kW
       Mesh    2
       Max CFL number:  0.19E-01 at (13,20,9)
       Max divergence:  0.17E-05 at (17,19,2)
       Min divergence: -0.16E-05 at (7,20,19)
       Max VN number:   0.21E-01 at (23,1,17)
       Radiation Loss to Boundaries:        -0.002 kW
       Mesh    3
       Max CFL number:  0.20E-01 at (11,11,2)
       Max divergence:  0.17E-05 at (8,2,2)
       Min divergence: -0.20E-05 at (23,7,14)
       Max VN number:   0.22E-01 at (13,18,1)
       Radiation Loss to Boundaries:        -0.002 kW
       Mesh    4
       Max CFL number:  0.19E-01 at (17,15,14)
       Max divergence:  0.15E-05 at (4,6,2)
       Min divergence: -0.18E-05 at (14,14,19)
       Max VN number:   0.17E-01 at (11,18,20)
       Radiation Loss to Boundaries:        -0.001 kW
       Mesh    5
       Max CFL number:  0.20E-01 at (21,22,6)
       Max divergence:  0.15E-05 at (5,22,2)
       Min divergence: -0.15E-05 at (12,6,14)
       Max VN number:   0.20E-01 at (24,11,9)
       Mesh    6
       Max CFL number:  0.19E-01 at (10,20,2)
       Max divergence:  0.22E-05 at (4,3,2)
       Min divergence: -0.19E-05 at (19,17,19)
       Max VN number:   0.18E-01 at (4,1,10)
       Radiation Loss to Boundaries:        -0.002 kW
       Mesh    7
       Max CFL number:  0.20E-01 at (4,22,3)
       Max divergence:  0.16E-05 at (6,10,2)
       Min divergence: -0.19E-05 at (20,13,14)
       Max VN number:   0.21E-01 at (21,16,15)
       Radiation Loss to Boundaries:        -0.002 kW
       Mesh    8
       Max CFL number:  0.18E-01 at (13,20,18)
       Max divergence:  0.15E-05 at (3,7,2)
       Min divergence: -0.18E-05 at (8,7,19)
       Max VN number:   0.21E-01 at (5,25,6)
       Radiation Loss to Boundaries:        -0.002 kW
 
       Time Step       9   September  2, 2023  01:34:19
       Step Size:    0.158E+00 s, Total Time:       1.42 s
       Pressure Iterations: 1
       Maximum Velocity Error:  0.34E-03 on Mesh 1 at (17,25,4)
       Maximum Pressure Error:  0.54E-03 on Mesh 1 at (4,4,1)
       ---------------------------------------------------------------
       Mesh    1
       Max CFL number:  0.19E-01 at (18,2,12)
       Max divergence:  0.12E-01 at (4,5,1)
       Min divergence: -0.16E-05 at (6,7,14)
       Max VN number:   0.19E-01 at (3,16,5)
       Total Heat Release Rate:              0.403 kW
       Mesh    2
       Max CFL number:  0.19E-01 at (13,20,9)
       Max divergence:  0.17E-05 at (17,19,2)
       Min divergence: -0.16E-05 at (7,20,19)
       Max VN number:   0.21E-01 at (23,1,17)
       Radiation Loss to Boundaries:        -0.001 kW
       Mesh    3
       Max CFL number:  0.20E-01 at (11,11,2)
       Max divergence:  0.17E-05 at (8,2,2)
       Min divergence: -0.20E-05 at (23,7,14)
       Max VN number:   0.22E-01 at (13,18,1)
       Radiation Loss to Boundaries:        -0.001 kW
       Mesh    4
       Max CFL number:  0.19E-01 at (17,15,14)
       Max divergence:  0.16E-05 at (4,6,2)
       Min divergence: -0.18E-05 at (14,14,19)
       Max VN number:   0.17E-01 at (11,18,20)
       Radiation Loss to Boundaries:        -0.001 kW
       Mesh    5
       Max CFL number:  0.20E-01 at (21,22,6)
       Max divergence:  0.15E-05 at (5,22,2)
       Min divergence: -0.15E-05 at (12,6,14)
       Max VN number:   0.20E-01 at (24,11,9)
       Mesh    6
       Max CFL number:  0.19E-01 at (10,20,2)
       Max divergence:  0.22E-05 at (4,3,2)
       Min divergence: -0.18E-05 at (19,17,19)
       Max VN number:   0.18E-01 at (4,1,10)
       Radiation Loss to Boundaries:        -0.001 kW
       Mesh    7
       Max CFL number:  0.20E-01 at (4,22,3)
       Max divergence:  0.17E-05 at (6,10,2)
       Min divergence: -0.19E-05 at (20,13,14)
       Max VN number:   0.21E-01 at (21,16,15)
       Radiation Loss to Boundaries:        -0.001 kW
       Mesh    8
       Max CFL number:  0.18E-01 at (13,20,18)
       Max divergence:  0.15E-05 at (3,7,2)
       Min divergence: -0.17E-05 at (8,7,19)
       Max VN number:   0.21E-01 at (5,25,6)
       Radiation Loss to Boundaries:        -0.001 kW
 
       Time Step      10   September  2, 2023  01:34:19
       Step Size:    0.158E+00 s, Total Time:       1.58 s
       Pressure Iterations: 1
       Maximum Velocity Error:  0.29E-03 on Mesh 1 at (12,25,1)
       Maximum Pressure Error:  0.11E-02 on Mesh 1 at (4,4,1)
       ---------------------------------------------------------------
       Mesh    1
       Max CFL number:  0.19E-01 at (18,2,12)
       Max divergence:  0.13E-01 at (4,5,1)
       Min divergence: -0.16E-05 at (6,7,14)
       Max VN number:   0.19E-01 at (3,16,5)
       Total Heat Release Rate:              0.455 kW
       Mesh    2
       Max CFL number:  0.19E-01 at (13,20,9)
       Max divergence:  0.17E-05 at (17,19,2)
       Min divergence: -0.16E-05 at (7,20,19)
       Max VN number:   0.22E-01 at (23,1,17)
       Radiation Loss to Boundaries:        -0.001 kW
       Mesh    3
       Max CFL number:  0.19E-01 at (11,11,2)
       Max divergence:  0.17E-05 at (8,2,2)
       Min divergence: -0.20E-05 at (23,7,14)
       Max VN number:   0.22E-01 at (13,18,1)
       Radiation Loss to Boundaries:        -0.001 kW
       Mesh    4
       Max CFL number:  0.19E-01 at (17,15,14)
       Max divergence:  0.16E-05 at (4,6,2)
       Min divergence: -0.18E-05 at (14,14,19)
       Max VN number:   0.17E-01 at (11,18,20)
       Radiation Loss to Boundaries:        -0.001 kW
       Mesh    5
       Max CFL number:  0.20E-01 at (21,22,6)
       Max divergence:  0.15E-05 at (5,22,2)
       Min divergence: -0.15E-05 at (12,6,14)
       Max VN number:   0.20E-01 at (24,11,9)
       Mesh    6
       Max CFL number:  0.19E-01 at (10,20,2)
       Max divergence:  0.22E-05 at (4,3,2)
       Min divergence: -0.18E-05 at (19,17,19)
       Max VN number:   0.18E-01 at (4,1,10)
       Radiation Loss to Boundaries:        -0.001 kW
       Mesh    7
       Max CFL number:  0.20E-01 at (4,22,3)
       Max divergence:  0.17E-05 at (6,10,2)
       Min divergence: -0.19E-05 at (20,13,14)
       Max VN number:   0.21E-01 at (21,16,15)
       Radiation Loss to Boundaries:        -0.001 kW
       Mesh    8
       Max CFL number:  0.18E-01 at (13,20,18)
       Max divergence:  0.15E-05 at (3,7,2)
       Min divergence: -0.17E-05 at (8,7,19)
       Max VN number:   0.21E-01 at (5,25,6)
       Radiation Loss to Boundaries:        -0.001 kW
 
       Time Step      20   September  2, 2023  01:34:19
       Step Size:    0.158E+00 s, Total Time:       3.16 s
       Pressure Iterations: 1
       Maximum Velocity Error:  0.22E-03 on Mesh 1 at (25,17,15)
       Maximum Pressure Error:  0.58E-02 on Mesh 1 at (4,4,1)
       ---------------------------------------------------------------
       Mesh    1
       Max CFL number:  0.88E-01 at (3,6,1)
       Max divergence:  0.27E-01 at (4,5,1)
       Min divergence: -0.16E-05 at (6,7,14)
       Max VN number:   0.30E-01 at (3,3,2)
       Total Heat Release Rate:              0.982 kW
       Radiation Loss to Boundaries:        -0.003 kW
       Mesh    2
       Max CFL number:  0.18E-01 at (13,20,9)
       Max divergence:  0.18E-05 at (17,19,2)
       Min divergence: -0.16E-05 at (7,20,19)
       Max VN number:   0.22E-01 at (23,1,17)
       Mesh    3
       Max CFL number:  0.19E-01 at (11,11,2)
       Max divergence:  0.18E-05 at (8,2,2)
       Min divergence: -0.19E-05 at (23,7,14)
       Max VN number:   0.22E-01 at (13,18,1)
       Mesh    4
       Max CFL number:  0.18E-01 at (17,15,14)
       Max divergence:  0.16E-05 at (4,6,2)
       Min divergence: -0.17E-05 at (14,14,19)
       Max VN number:   0.16E-01 at (11,18,20)
       Mesh    5
       Max CFL number:  0.19E-01 at (21,22,6)
       Max divergence:  0.15E-05 at (5,22,2)
       Min divergence: -0.15E-05 at (12,6,14)
       Max VN number:   0.20E-01 at (24,11,9)
       Mesh    6
       Max CFL number:  0.19E-01 at (10,20,2)
       Max divergence:  0.21E-05 at (4,3,2)
       Min divergence: -0.18E-05 at (19,17,19)
       Max VN number:   0.18E-01 at (4,1,10)
       Mesh    7
       Max CFL number:  0.19E-01 at (4,22,3)
       Max divergence:  0.17E-05 at (6,10,2)
       Min divergence: -0.18E-05 at (20,13,14)
       Max VN number:   0.20E-01 at (21,16,15)
       Mesh    8
       Max CFL number:  0.18E-01 at (13,20,18)
       Max divergence:  0.15E-05 at (1,19,2)
       Min divergence: -0.17E-05 at (10,19,19)
       Max VN number:   0.20E-01 at (5,25,6)
 
       Time Step      30   September  2, 2023  01:34:20
       Step Size:    0.158E+00 s, Total Time:       4.74 s
       Pressure Iterations: 1
       Maximum Velocity Error:  0.15E-03 on Mesh 1 at (25,17,8)
       Maximum Pressure Error:  0.50E-01 on Mesh 1 at (4,5,1)
       ---------------------------------------------------------------
       Mesh    1
       Max CFL number:  0.30E+00 at (4,5,1)
       Max divergence:  0.34E-01 at (3,5,1)
       Min divergence: -0.17E-04 at (3,3,3)
       Max VN number:   0.77E-01 at (3,3,2)
       Total Heat Release Rate:              1.505 kW
       Radiation Loss to Boundaries:        -0.008 kW
       Mesh    2
       Max CFL number:  0.18E-01 at (13,20,9)
       Max divergence:  0.18E-05 at (17,19,2)
       Min divergence: -0.16E-05 at (7,20,19)
       Max VN number:   0.21E-01 at (23,1,17)
       Mesh    3
       Max CFL number:  0.18E-01 at (11,11,2)
       Max divergence:  0.17E-05 at (8,2,2)
       Min divergence: -0.19E-05 at (23,7,14)
       Max VN number:   0.22E-01 at (13,18,1)
       Mesh    4
       Max CFL number:  0.18E-01 at (17,15,14)
       Max divergence:  0.16E-05 at (4,6,2)
       Min divergence: -0.17E-05 at (8,11,19)
       Max VN number:   0.15E-01 at (22,12,20)
       Mesh    5
       Max CFL number:  0.18E-01 at (10,19,10)
       Max divergence:  0.15E-05 at (5,22,2)
       Min divergence: -0.15E-05 at (12,6,14)
       Max VN number:   0.20E-01 at (7,25,7)
       Mesh    6
       Max CFL number:  0.18E-01 at (10,20,2)
       Max divergence:  0.21E-05 at (4,3,2)
       Min divergence: -0.17E-05 at (19,17,19)
       Max VN number:   0.17E-01 at (4,1,10)
       Mesh    7
       Max CFL number:  0.18E-01 at (4,22,3)
       Max divergence:  0.17E-05 at (6,10,2)
       Min divergence: -0.18E-05 at (20,13,14)
       Max VN number:   0.20E-01 at (21,16,15)
       Mesh    8
       Max CFL number:  0.18E-01 at (13,20,18)
       Max divergence:  0.15E-05 at (1,19,2)
       Min divergence: -0.17E-05 at (10,19,19)
       Max VN number:   0.20E-01 at (5,25,6)
 
       Time Step      40   September  2, 2023  01:34:20
       Step Size:    0.158E+00 s, Total Time:       6.32 s
       Pressure Iterations: 1
       Maximum Velocity Error:  0.13E-03 on Mesh 1 at (1,15,15)
       Maximum Pressure Error:  0.15E+00 on Mesh 1 at (4,4,5)
       ---------------------------------------------------------------
       Mesh    1
       Max CFL number:  0.78E+00 at (4,5,5)
       Max divergence:  0.46E-01 at (4,5,1)
       Min divergence: -0.19E-01 at (4,4,5)
       Max VN number:   0.26E+00 at (4,5,4)
       Total Heat Release Rate:              2.034 kW
       Radiation Loss to Boundaries:        -0.013 kW
       Mesh    2
       Max CFL number:  0.17E-01 at (13,20,9)
       Max divergence:  0.17E-05 at (17,19,2)
       Min divergence: -0.16E-05 at (7,20,19)
       Max VN number:   0.21E-01 at (23,1,17)
       Mesh    3
       Max CFL number:  0.18E-01 at (5,10,12)
       Max divergence:  0.17E-05 at (24,3,2)
       Min divergence: -0.19E-05 at (23,7,14)
       Max VN number:   0.21E-01 at (13,18,1)
       Mesh    4
       Max CFL number:  0.17E-01 at (17,15,14)
       Max divergence:  0.16E-05 at (4,6,2)
       Min divergence: -0.17E-05 at (8,11,19)
       Max VN number:   0.15E-01 at (22,12,20)
       Mesh    5
       Max CFL number:  0.18E-01 at (10,19,10)
       Max divergence:  0.15E-05 at (5,22,2)
       Min divergence: -0.14E-05 at (19,9,14)
       Max VN number:   0.21E-01 at (7,25,7)
       Mesh    6
       Max CFL number:  0.18E-01 at (10,20,2)
       Max divergence:  0.20E-05 at (4,3,2)
       Min divergence: -0.17E-05 at (19,17,19)
       Max VN number:   0.17E-01 at (4,1,10)
       Mesh    7
       Max CFL number:  0.18E-01 at (4,22,3)
       Max divergence:  0.17E-05 at (6,10,2)
       Min divergence: -0.17E-05 at (20,13,14)
       Max VN number:   0.19E-01 at (21,16,15)
       Mesh    8
       Max CFL number:  0.17E-01 at (13,20,18)
       Max divergence:  0.15E-05 at (1,19,2)
       Min divergence: -0.17E-05 at (10,19,19)
       Max VN number:   0.20E-01 at (5,25,6)
 
       Time Step      50   September  2, 2023  01:34:20
       Step Size:    0.138E+00 s, Total Time:       7.79 s
       Pressure Iterations: 1
       Maximum Velocity Error:  0.89E-04 on Mesh 1 at (1,25,15)
       Maximum Pressure Error:  0.23E+00 on Mesh 1 at (4,4,10)
       ---------------------------------------------------------------
       Mesh    1
       Max CFL number:  0.97E+00 at (4,4,8)
       Max divergence:  0.60E-01 at (4,5,1)
       Min divergence: -0.33E-01 at (4,5,10)
       Max VN number:   0.38E+00 at (4,5,9)
       Total Heat Release Rate:              2.522 kW
       Radiation Loss to Boundaries:        -0.020 kW
       Mesh    2
       Max CFL number:  0.15E-01 at (13,20,9)
       Max divergence:  0.17E-05 at (17,19,2)
       Min divergence: -0.15E-05 at (20,7,19)
       Max VN number:   0.18E-01 at (23,1,17)
       Mesh    3
       Max CFL number:  0.15E-01 at (5,10,12)
       Max divergence:  0.17E-05 at (8,2,2)
       Min divergence: -0.18E-05 at (23,7,14)
       Max VN number:   0.18E-01 at (13,18,1)
       Mesh    4
       Max CFL number:  0.15E-01 at (17,15,14)
       Max divergence:  0.16E-05 at (4,6,2)
       Min divergence: -0.16E-05 at (8,11,19)
       Max VN number:   0.13E-01 at (22,12,20)
       Mesh    5
       Max CFL number:  0.15E-01 at (10,19,10)
       Max divergence:  0.14E-05 at (5,22,2)
       Min divergence: -0.14E-05 at (19,9,14)
       Max VN number:   0.18E-01 at (7,25,7)
       Mesh    6
       Max CFL number:  0.15E-01 at (10,20,2)
       Max divergence:  0.19E-05 at (4,3,2)
       Min divergence: -0.17E-05 at (19,17,19)
       Max VN number:   0.15E-01 at (3,4,1)
       Mesh    7
       Max CFL number:  0.15E-01 at (4,22,3)
       Max divergence:  0.16E-05 at (6,10,2)
       Min divergence: -0.17E-05 at (20,13,14)
       Max VN number:   0.16E-01 at (21,16,15)
       Mesh    8
       Max CFL number:  0.15E-01 at (13,20,18)
       Max divergence:  0.15E-05 at (1,19,2)
       Min divergence: -0.16E-05 at (10,19,19)
       Max VN number:   0.18E-01 at (5,25,6)
 
       Time Step      60   September  2, 2023  01:34:21
       Step Size:    0.123E+00 s, Total Time:       9.02 s
       Pressure Iterations: 1
       Maximum Velocity Error:  0.13E-03 on Mesh 1 at (1,15,15)
       Maximum Pressure Error:  0.13E+00 on Mesh 1 at (4,5,15)
       ---------------------------------------------------------------
       Mesh    1
       Max CFL number:  0.93E+00 at (4,4,10)
       Max divergence:  0.64E-01 at (5,4,1)
       Min divergence: -0.20E-01 at (4,4,4)
       Max VN number:   0.38E+00 at (4,4,13)
       Total Heat Release Rate:              2.928 kW
       Radiation Loss to Boundaries:        -0.194 kW
       Mesh    2
       Max CFL number:  0.13E-01 at (13,20,9)
       Max divergence:  0.17E-05 at (17,19,2)
       Min divergence: -0.15E-05 at (20,7,19)
       Max VN number:   0.16E-01 at (23,1,17)
       Mesh    3
       Max CFL number:  0.14E-01 at (5,10,12)
       Max divergence:  0.16E-05 at (8,2,2)
       Min divergence: -0.18E-05 at (23,7,14)
       Max VN number:   0.17E-01 at (15,20,15)
       Mesh    4
       Max CFL number:  0.13E-01 at (17,15,14)
       Max divergence:  0.15E-05 at (4,6,2)
       Min divergence: -0.16E-05 at (8,11,19)
       Max VN number:   0.11E-01 at (1,15,1)
       Mesh    5
       Max CFL number:  0.14E-01 at (10,19,10)
       Max divergence:  0.14E-05 at (5,22,2)
       Min divergence: -0.14E-05 at (19,9,14)
       Max VN number:   0.16E-01 at (7,25,7)
       Mesh    6
       Max CFL number:  0.13E-01 at (10,20,2)
       Max divergence:  0.18E-05 at (4,3,2)
       Min divergence: -0.16E-05 at (19,17,19)
       Max VN number:   0.13E-01 at (3,4,1)
       Mesh    7
       Max CFL number:  0.13E-01 at (4,22,3)
       Max divergence:  0.16E-05 at (6,10,2)
       Min divergence: -0.16E-05 at (20,13,14)
       Max VN number:   0.14E-01 at (21,16,15)
       Mesh    8
       Max CFL number:  0.13E-01 at (13,20,18)
       Max divergence:  0.15E-05 at (1,19,2)
       Min divergence: -0.16E-05 at (10,19,19)
       Max VN number:   0.16E-01 at (5,25,6)
 
       Time Step      70   September  2, 2023  01:34:21
       Step Size:    0.104E+00 s, Total Time:      10.17 s
       Pressure Iterations: 1
       Maximum Velocity Error:  0.11E-03 on Mesh 1 at (24,15,1)
       Maximum Pressure Error:  0.14E+00 on Mesh 1 at (3,4,15)
       ---------------------------------------------------------------
       Mesh    1
       Max CFL number:  0.80E+00 at (4,5,12)
       Max divergence:  0.70E-01 at (5,5,1)
       Min divergence: -0.19E-01 at (4,4,5)
       Max VN number:   0.42E+00 at (3,3,15)
       Total Heat Release Rate:              3.350 kW
       Radiation Loss to Boundaries:        -0.680 kW
       Mesh    2
       Max CFL number:  0.11E-01 at (13,20,9)
       Max divergence:  0.17E-05 at (17,19,2)
       Min divergence: -0.15E-05 at (20,7,19)
       Max VN number:   0.13E-01 at (23,1,17)
       Mesh    3
       Max CFL number:  0.11E-01 at (5,10,12)
       Max divergence:  0.16E-05 at (15,14,2)
       Min divergence: -0.18E-05 at (23,7,14)
       Max VN number:   0.14E-01 at (15,20,15)
       Mesh    4
       Max CFL number:  0.11E-01 at (17,15,14)
       Max divergence:  0.15E-05 at (4,6,2)
       Min divergence: -0.15E-05 at (8,11,19)
       Max VN number:   0.95E-02 at (1,15,1)
       Mesh    5
       Max CFL number:  0.11E-01 at (10,19,10)
       Max divergence:  0.14E-05 at (5,22,2)
       Min divergence: -0.14E-05 at (19,9,14)
       Max VN number:   0.13E-01 at (7,25,7)
       Mesh    6
       Max CFL number:  0.11E-01 at (10,20,2)
       Max divergence:  0.17E-05 at (4,3,2)
       Min divergence: -0.16E-05 at (19,17,19)
       Max VN number:   0.11E-01 at (3,4,1)
       Mesh    7
       Max CFL number:  0.11E-01 at (4,22,3)
       Max divergence:  0.16E-05 at (6,10,2)
       Min divergence: -0.16E-05 at (5,8,14)
       Max VN number:   0.12E-01 at (21,16,15)
       Mesh    8
       Max CFL number:  0.11E-01 at (13,20,18)
       Max divergence:  0.15E-05 at (1,19,2)
       Min divergence: -0.16E-05 at (10,19,19)
       Max VN number:   0.13E-01 at (5,25,6)
 
       Time Step      80   September  2, 2023  01:34:21
       Step Size:    0.126E+00 s, Total Time:      11.38 s
       Pressure Iterations: 1
       Maximum Velocity Error:  0.29E-03 on Mesh 1 at (1,15,15)
       Maximum Pressure Error:  0.12E+00 on Mesh 1 at (2,4,15)
       ---------------------------------------------------------------
       Mesh    1
       Max CFL number:  0.93E+00 at (3,4,10)
       Max divergence:  0.63E-01 at (5,6,1)
       Min divergence: -0.18E-01 at (4,5,4)
       Max VN number:   0.76E+00 at (6,2,15)
       Total Heat Release Rate:              3.705 kW
       Radiation Loss to Boundaries:        -0.972 kW
       Mesh    2
       Max CFL number:  0.13E-01 at (16,2,5)
       Max divergence:  0.16E-05 at (17,19,2)
       Min divergence: -0.15E-05 at (20,7,19)
       Max VN number:   0.16E-01 at (23,1,17)
       Mesh    3
       Max CFL number:  0.14E-01 at (5,10,12)
       Max divergence:  0.15E-05 at (15,14,2)
       Min divergence: -0.18E-05 at (23,7,14)
       Max VN number:   0.17E-01 at (15,20,15)
       Mesh    4
       Max CFL number:  0.13E-01 at (7,11,9)
       Max divergence:  0.15E-05 at (4,6,2)
       Min divergence: -0.15E-05 at (20,14,19)
       Max VN number:   0.11E-01 at (1,15,1)
       Mesh    5
       Max CFL number:  0.13E-01 at (10,19,10)
       Max divergence:  0.14E-05 at (5,22,2)
       Min divergence: -0.14E-05 at (19,9,14)
       Max VN number:   0.16E-01 at (7,25,7)
       Mesh    6
       Max CFL number:  0.13E-01 at (10,20,2)
       Max divergence:  0.17E-05 at (4,3,2)
       Min divergence: -0.16E-05 at (19,17,19)
       Max VN number:   0.13E-01 at (3,4,1)
       Mesh    7
       Max CFL number:  0.13E-01 at (4,22,3)
       Max divergence:  0.15E-05 at (6,10,2)
       Min divergence: -0.16E-05 at (5,8,14)
       Max VN number:   0.14E-01 at (21,16,15)
       Mesh    8
       Max CFL number:  0.12E-01 at (13,20,18)
       Max divergence:  0.14E-05 at (1,19,2)
       Min divergence: -0.16E-05 at (10,19,19)
       Max VN number:   0.16E-01 at (5,25,6)
 
       Time Step      90   September  2, 2023  01:34:22
       Step Size:    0.126E+00 s, Total Time:      12.63 s
       Pressure Iterations: 1
       Maximum Velocity Error:  0.73E-03 on Mesh 1 at (1,15,15)
       Maximum Pressure Error:  0.11E+00 on Mesh 1 at (3,3,15)
       ---------------------------------------------------------------
       Mesh    1
       Max CFL number:  0.90E+00 at (2,5,15)
       Max divergence:  0.59E-01 at (4,5,1)
       Min divergence: -0.23E-01 at (4,5,5)
       Max VN number:   0.86E+00 at (2,2,15)
       Total Heat Release Rate:              4.132 kW
       Radiation Loss to Boundaries:        -1.136 kW
       Mesh    2
       Max CFL number:  0.12E-01 at (16,2,5)
       Max divergence:  0.16E-05 at (17,19,2)
       Min divergence: -0.15E-05 at (20,7,19)
       Max VN number:   0.15E-01 at (23,1,17)
       Mesh    3
       Max CFL number:  0.13E-01 at (5,10,12)
       Max divergence:  0.15E-05 at (6,19,2)
       Min divergence: -0.17E-05 at (23,7,14)
       Max VN number:   0.17E-01 at (15,20,15)
       Mesh    4
       Max CFL number:  0.12E-01 at (7,11,9)
       Max divergence:  0.15E-05 at (4,6,2)
       Min divergence: -0.15E-05 at (20,14,19)
       Max VN number:   0.11E-01 at (1,15,1)
       Mesh    5
       Max CFL number:  0.13E-01 at (10,19,10)
       Max divergence:  0.14E-05 at (5,22,2)
       Min divergence: -0.14E-05 at (19,9,14)
       Max VN number:   0.16E-01 at (7,25,7)
       Mesh    6
       Max CFL number:  0.13E-01 at (10,20,2)
       Max divergence:  0.16E-05 at (4,3,2)
       Min divergence: -0.15E-05 at (19,17,19)
       Max VN number:   0.13E-01 at (3,4,1)
       Mesh    7
       Max CFL number:  0.12E-01 at (23,4,8)
       Max divergence:  0.15E-05 at (6,10,2)
       Min divergence: -0.16E-05 at (5,8,14)
       Max VN number:   0.14E-01 at (6,23,1)
       Mesh    8
       Max CFL number:  0.12E-01 at (13,20,18)
       Max divergence:  0.14E-05 at (1,19,2)
       Min divergence: -0.15E-05 at (10,19,19)
       Max VN number:   0.16E-01 at (5,25,6)
 
       Time Step     100   September  2, 2023  01:34:22
       Step Size:    0.136E+00 s, Total Time:      13.91 s
       Pressure Iterations: 1
       Maximum Velocity Error:  0.48E-02 on Mesh 1 at (1,15,13)
       Maximum Pressure Error:  0.60E-01 on Mesh 1 at (1,1,9)
       ---------------------------------------------------------------
       Mesh    1
       Max CFL number:  0.89E+00 at (3,3,15)
       Max divergence:  0.61E-01 at (4,5,1)
       Min divergence: -0.27E-01 at (4,4,5)
       Max VN number:   0.80E+00 at (3,1,14)
       Total Heat Release Rate:              4.449 kW
       Radiation Loss to Boundaries:        -1.281 kW
       Mesh    2
       Max CFL number:  0.13E-01 at (16,2,5)
       Max divergence:  0.16E-05 at (17,19,2)
       Min divergence: -0.15E-05 at (20,7,19)
       Max VN number:   0.16E-01 at (23,1,17)
       Mesh    3
       Max CFL number:  0.14E-01 at (5,10,12)
       Max divergence:  0.15E-05 at (6,19,2)
       Min divergence: -0.17E-05 at (23,7,14)
       Max VN number:   0.19E-01 at (15,20,15)
       Mesh    4
       Max CFL number:  0.13E-01 at (7,11,9)
       Max divergence:  0.15E-05 at (4,6,2)
       Min divergence: -0.15E-05 at (20,14,19)
       Max VN number:   0.12E-01 at (1,15,1)
       Mesh    5
       Max CFL number:  0.14E-01 at (10,19,10)
       Max divergence:  0.13E-05 at (5,22,2)
       Min divergence: -0.14E-05 at (19,9,14)
       Max VN number:   0.17E-01 at (7,25,7)
       Mesh    6
       Max CFL number:  0.14E-01 at (10,20,2)
       Max divergence:  0.16E-05 at (6,20,2)
       Min divergence: -0.15E-05 at (19,17,19)
       Max VN number:   0.14E-01 at (3,4,1)
       Mesh    7
       Max CFL number:  0.13E-01 at (23,4,8)
       Max divergence:  0.14E-05 at (6,10,2)
       Min divergence: -0.16E-05 at (5,8,14)
       Max VN number:   0.15E-01 at (6,23,1)
       Mesh    8
       Max CFL number:  0.13E-01 at (7,15,3)
       Max divergence:  0.14E-05 at (1,19,2)
       Min divergence: -0.15E-05 at (10,19,19)
       Max VN number:   0.17E-01 at (5,25,6)
 
       Time Step     200   September  2, 2023  01:34:25
       Step Size:    0.105E+00 s, Total Time:      26.00 s
       Pressure Iterations: 1
       Maximum Velocity Error:  0.31E-02 on Mesh 1 at (24,4,15)
       Maximum Pressure Error:  0.15E+00 on Mesh 1 at (1,8,15)
       ---------------------------------------------------------------
       Mesh    1
       Max CFL number:  0.84E+00 at (3,4,12)
       Max divergence:  0.13E+00 at (4,3,1)
       Min divergence: -0.30E-01 at (3,4,5)
       Max VN number:   0.56E+00 at (19,1,12)
       Total Heat Release Rate:              8.586 kW
       Radiation Loss to Boundaries:        -2.810 kW
       Mesh    2
       Max CFL number:  0.87E-02 at (3,12,8)
       Max divergence:  0.12E-05 at (17,19,2)
       Min divergence: -0.14E-05 at (20,7,19)
       Max VN number:   0.95E-02 at (3,13,20)
       Mesh    3
       Max CFL number:  0.95E-02 at (5,10,12)
       Max divergence:  0.14E-05 at (6,19,2)
       Min divergence: -0.14E-05 at (23,7,14)
       Max VN number:   0.13E-01 at (15,20,15)
       Mesh    4
       Max CFL number:  0.90E-02 at (12,7,17)
       Max divergence:  0.13E-05 at (8,24,2)
       Min divergence: -0.13E-05 at (20,6,19)
       Max VN number:   0.96E-02 at (13,24,1)
       Mesh    5
       Max CFL number:  0.11E-01 at (12,23,1)
       Max divergence:  0.11E-05 at (5,22,2)
       Min divergence: -0.13E-05 at (22,10,14)
       Max VN number:   0.12E-01 at (7,25,7)
       Mesh    6
       Max CFL number:  0.87E-02 at (7,17,18)
       Max divergence:  0.13E-05 at (6,20,2)
       Min divergence: -0.12E-05 at (11,3,19)
       Max VN number:   0.94E-02 at (3,4,1)
       Mesh    7
       Max CFL number:  0.86E-02 at (16,12,4)
       Max divergence:  0.13E-05 at (16,20,2)
       Min divergence: -0.14E-05 at (5,8,14)
       Max VN number:   0.12E-01 at (6,23,1)
       Mesh    8
       Max CFL number:  0.91E-02 at (14,17,5)
       Max divergence:  0.12E-05 at (14,22,2)
       Min divergence: -0.13E-05 at (2,24,19)
       Max VN number:   0.11E-01 at (5,25,6)
 
       Time Step     300   September  2, 2023  01:34:29
       Step Size:    0.983E-01 s, Total Time:      35.97 s
       Pressure Iterations: 1
       Maximum Velocity Error:  0.64E-02 on Mesh 1 at (1,15,14)
       Maximum Pressure Error:  0.24E+00 on Mesh 1 at (1,4,14)
       ---------------------------------------------------------------
       Mesh    1
       Max CFL number:  0.88E+00 at (2,4,13)
       Max divergence:  0.19E+00 at (4,4,1)
       Min divergence: -0.30E-01 at (3,4,4)
       Max VN number:   0.60E+00 at (14,1,12)
       Total Heat Release Rate:             11.849 kW
       Radiation Loss to Boundaries:        -3.847 kW
       Mesh    2
       Max CFL number:  0.88E-02 at (1,18,6)
       Max divergence:  0.10E-05 at (16,9,2)
       Min divergence: -0.12E-05 at (20,7,19)
       Max VN number:   0.95E-02 at (3,13,20)
       Mesh    3
       Max CFL number:  0.78E-02 at (5,10,12)
       Max divergence:  0.12E-05 at (6,19,2)
       Min divergence: -0.12E-05 at (23,7,14)
       Max VN number:   0.12E-01 at (15,20,15)
       Mesh    4
       Max CFL number:  0.79E-02 at (12,7,17)
       Max divergence:  0.12E-05 at (8,24,2)
       Min divergence: -0.13E-05 at (8,23,19)
       Max VN number:   0.90E-02 at (13,24,1)
       Mesh    5
       Max CFL number:  0.89E-02 at (12,23,1)
       Max divergence:  0.11E-05 at (18,5,2)
       Min divergence: -0.12E-05 at (4,17,14)
       Max VN number:   0.11E-01 at (7,25,7)
       Mesh    6
       Max CFL number:  0.76E-02 at (23,1,19)
       Max divergence:  0.11E-05 at (5,19,2)
       Min divergence: -0.11E-05 at (11,3,19)
       Max VN number:   0.81E-02 at (13,8,1)
       Mesh    7
       Max CFL number:  0.71E-02 at (7,5,3)
       Max divergence:  0.12E-05 at (16,20,2)
       Min divergence: -0.12E-05 at (5,8,14)
       Max VN number:   0.11E-01 at (6,23,1)
       Mesh    8
       Max CFL number:  0.80E-02 at (8,25,11)
       Max divergence:  0.12E-05 at (12,10,2)
       Min divergence: -0.12E-05 at (2,24,19)
       Max VN number:   0.94E-02 at (5,25,6)
 
       Time Step     400   September  2, 2023  01:34:32
       Step Size:    0.765E-01 s, Total Time:      45.10 s
       Pressure Iterations: 1
       Maximum Velocity Error:  0.62E-02 on Mesh 1 at (1,15,15)
       Maximum Pressure Error:  0.32E+00 on Mesh 1 at (1,4,12)
       ---------------------------------------------------------------
       Mesh    1
       Max CFL number:  0.75E+00 at (3,3,8)
       Max divergence:  0.27E+00 at (4,4,1)
       Min divergence: -0.82E-01 at (3,4,3)
       Max VN number:   0.94E+00 at (1,2,13)
       Total Heat Release Rate:             14.964 kW
       Radiation Loss to Boundaries:        -5.057 kW
       Mesh    2
       Max CFL number:  0.73E-02 at (1,18,6)
       Max divergence:  0.97E-06 at (16,9,2)
       Min divergence: -0.11E-05 at (20,7,19)
       Max VN number:   0.93E-02 at (1,17,10)
       Mesh    3
       Max CFL number:  0.54E-02 at (5,11,12)
       Max divergence:  0.11E-05 at (6,19,2)
       Min divergence: -0.10E-05 at (23,7,14)
       Max VN number:   0.82E-02 at (15,20,15)
       Mesh    4
       Max CFL number:  0.55E-02 at (12,7,17)
       Max divergence:  0.10E-05 at (1,21,2)
       Min divergence: -0.12E-05 at (8,23,19)
       Max VN number:   0.71E-02 at (1,22,2)
       Mesh    5
       Max CFL number:  0.79E-02 at (24,20,10)
       Max divergence:  0.10E-05 at (18,5,2)
       Min divergence: -0.13E-05 at (4,17,14)
       Max VN number:   0.94E-02 at (25,22,11)
       Mesh    6
       Max CFL number:  0.55E-02 at (23,1,19)
       Max divergence:  0.11E-05 at (5,19,2)
       Min divergence: -0.11E-05 at (11,3,19)
       Max VN number:   0.67E-02 at (13,8,1)
       Mesh    7
       Max CFL number:  0.53E-02 at (10,19,12)
       Max divergence:  0.11E-05 at (15,12,2)
       Min divergence: -0.11E-05 at (5,8,14)
       Max VN number:   0.80E-02 at (6,23,1)
       Mesh    8
       Max CFL number:  0.80E-02 at (8,25,11)
       Max divergence:  0.12E-05 at (12,10,2)
       Min divergence: -0.11E-05 at (2,24,19)
       Max VN number:   0.71E-02 at (17,25,9)
 
       Time Step     500   September  2, 2023  01:34:36
       Step Size:    0.915E-01 s, Total Time:      53.34 s
       Pressure Iterations: 1
       Maximum Velocity Error:  0.49E-01 on Mesh 1 at (1,15,15)
       Maximum Pressure Error:  0.14E+01 on Mesh 1 at (1,15,15)
       ---------------------------------------------------------------
       Mesh    1
       Max CFL number:  0.90E+00 at (1,14,15)
       Max divergence:  0.32E+00 at (4,5,1)
       Min divergence: -0.94E-01 at (4,3,3)
       Max VN number:   0.90E+00 at (1,2,14)
       Total Heat Release Rate:             17.667 kW
       Radiation Loss to Boundaries:        -6.078 kW
       Mesh    2
       Max CFL number:  0.79E-02 at (1,20,9)
       Max divergence:  0.90E-06 at (16,9,2)
       Min divergence: -0.95E-06 at (10,11,19)
       Max VN number:   0.11E-01 at (1,23,8)
       Mesh    3
       Max CFL number:  0.61E-02 at (5,11,12)
       Max divergence:  0.94E-06 at (6,19,2)
       Min divergence: -0.92E-06 at (3,22,14)
       Max VN number:   0.90E-02 at (15,20,15)
       Mesh    4
       Max CFL number:  0.61E-02 at (19,20,3)
       Max divergence:  0.95E-06 at (1,21,2)
       Min divergence: -0.11E-05 at (8,23,19)
       Max VN number:   0.87E-02 at (1,22,2)
       Mesh    5
       Max CFL number:  0.18E-01 at (1,18,15)
       Max divergence:  0.10E-05 at (18,5,2)
       Min divergence: -0.15E-05 at (1,19,14)
       Max VN number:   0.15E-01 at (3,16,11)
       Mesh    6
       Max CFL number:  0.61E-02 at (23,1,19)
       Max divergence:  0.98E-06 at (5,19,2)
       Min divergence: -0.10E-05 at (11,3,19)
       Max VN number:   0.80E-02 at (13,8,1)
       Mesh    7
       Max CFL number:  0.61E-02 at (10,19,12)
       Max divergence:  0.10E-05 at (15,12,2)
       Min divergence: -0.93E-06 at (5,8,14)
       Max VN number:   0.93E-02 at (6,23,1)
       Mesh    8
       Max CFL number:  0.70E-02 at (9,25,11)
       Max divergence:  0.11E-05 at (12,10,2)
       Min divergence: -0.99E-06 at (25,12,19)
       Max VN number:   0.70E-02 at (1,4,1)
 
       Time Step     600   September  2, 2023  01:34:39
       Step Size:    0.764E-01 s, Total Time:      60.96 s
       Pressure Iterations: 1
       Maximum Velocity Error:  0.75E-02 on Mesh 1 at (5,15,15)
       Maximum Pressure Error:  0.15E+01 on Mesh 1 at (4,1,15)
       ---------------------------------------------------------------
       Mesh    1
       Max CFL number:  0.76E+00 at (3,1,15)
       Max divergence:  0.30E+00 at (3,5,1)
       Min divergence: -0.12E+00 at (4,5,3)
       Max VN number:   0.67E+00 at (1,14,13)
       Total Heat Release Rate:             19.895 kW
       Radiation Loss to Boundaries:        -6.932 kW
       Mesh    2
       Max CFL number:  0.76E-02 at (1,20,10)
       Max divergence:  0.84E-06 at (16,9,2)
       Min divergence: -0.91E-06 at (10,23,19)
       Max VN number:   0.11E-01 at (1,23,8)
       Mesh    3
       Max CFL number:  0.47E-02 at (5,11,12)
       Max divergence:  0.88E-06 at (10,15,2)
       Min divergence: -0.85E-06 at (3,22,14)
       Max VN number:   0.68E-02 at (15,20,15)
       Mesh    4
       Max CFL number:  0.49E-02 at (19,20,3)
       Max divergence:  0.85E-06 at (1,21,2)
       Min divergence: -0.10E-05 at (8,23,19)
       Max VN number:   0.69E-02 at (1,22,2)
       Mesh    5
       Max CFL number:  0.12E+00 at (1,17,15)
       Max divergence:  0.37E-04 at (1,20,15)
       Min divergence: -0.79E-04 at (2,18,15)
       Max VN number:   0.38E-01 at (2,18,15)
       Mesh    6
       Max CFL number:  0.47E-02 at (23,1,19)
       Max divergence:  0.90E-06 at (5,19,2)
       Min divergence: -0.93E-06 at (11,3,19)
       Max VN number:   0.65E-02 at (13,8,1)
       Mesh    7
       Max CFL number:  0.49E-02 at (10,19,12)
       Max divergence:  0.96E-06 at (15,12,2)
       Min divergence: -0.84E-06 at (8,8,14)
       Max VN number:   0.74E-02 at (6,23,1)
       Mesh    8
       Max CFL number:  0.73E-02 at (8,25,11)
       Max divergence:  0.11E-05 at (12,10,2)
       Min divergence: -0.94E-06 at (25,12,19)
       Max VN number:   0.68E-02 at (17,25,9)
 
       Time Step     700   September  2, 2023  01:34:43
       Step Size:    0.888E-01 s, Total Time:      68.69 s
       Pressure Iterations: 1
       Maximum Velocity Error:  0.15E-01 on Mesh 1 at (25,21,15)
       Maximum Pressure Error:  0.11E+01 on Mesh 1 at (11,1,15)
       ---------------------------------------------------------------
       Mesh    1
       Max CFL number:  0.89E+00 at (3,4,5)
       Max divergence:  0.39E+00 at (4,5,1)
       Min divergence: -0.74E-01 at (3,4,3)
       Max VN number:   0.92E+00 at (5,1,10)
       Total Heat Release Rate:             22.245 kW
       Radiation Loss to Boundaries:        -7.728 kW
       Mesh    2
       Max CFL number:  0.12E-01 at (1,21,10)
       Max divergence:  0.82E-06 at (3,19,13)
       Min divergence: -0.90E-06 at (10,23,19)
       Max VN number:   0.15E-01 at (1,23,8)
       Mesh    3
       Max CFL number:  0.52E-02 at (5,11,12)
       Max divergence:  0.84E-06 at (10,15,2)
       Min divergence: -0.78E-06 at (3,22,14)
       Max VN number:   0.73E-02 at (15,20,15)
       Mesh    4
       Max CFL number:  0.54E-02 at (19,20,3)
       Max divergence:  0.76E-06 at (1,21,2)
       Min divergence: -0.94E-06 at (8,23,19)
       Max VN number:   0.75E-02 at (1,22,2)
       Mesh    5
       Max CFL number:  0.38E+00 at (9,23,14)
       Max divergence:  0.55E-03 at (6,22,15)
       Min divergence: -0.12E-02 at (9,23,14)
       Max VN number:   0.11E+00 at (1,19,15)
       Radiation Loss to Boundaries:        -0.005 kW
       Mesh    6
       Max CFL number:  0.50E-02 at (23,2,19)
       Max divergence:  0.82E-06 at (5,19,2)
       Min divergence: -0.86E-06 at (15,23,19)
       Max VN number:   0.72E-02 at (13,8,1)
       Mesh    7
       Max CFL number:  0.52E-02 at (10,19,12)
       Max divergence:  0.88E-06 at (15,12,2)
       Min divergence: -0.78E-06 at (17,15,14)
       Max VN number:   0.83E-02 at (6,23,1)
       Mesh    8
       Max CFL number:  0.66E-02 at (15,25,10)
       Max divergence:  0.98E-06 at (12,10,2)
       Min divergence: -0.87E-06 at (25,12,19)
       Max VN number:   0.63E-02 at (1,4,1)
 
       Time Step     800   September  2, 2023  01:34:46
       Step Size:    0.662E-01 s, Total Time:      75.98 s
       Pressure Iterations: 1
       Maximum Velocity Error:  0.87E-02 on Mesh 1 at (1,15,13)
       Maximum Pressure Error:  0.16E+01 on Mesh 1 at (4,3,1)
       ---------------------------------------------------------------
       Mesh    1
       Max CFL number:  0.61E+00 at (11,4,15)
       Max divergence:  0.41E+00 at (3,4,1)
       Min divergence: -0.15E+00 at (3,3,3)
       Max VN number:   0.74E+00 at (1,2,12)
       Total Heat Release Rate:             24.734 kW
       Radiation Loss to Boundaries:        -7.939 kW
       Mesh    2
       Max CFL number:  0.22E-01 at (1,18,11)
       Max divergence:  0.14E-05 at (1,19,12)
       Min divergence: -0.13E-05 at (1,20,8)
       Max VN number:   0.11E-01 at (1,17,10)
       Mesh    3
       Max CFL number:  0.36E-02 at (18,17,15)
       Max divergence:  0.79E-06 at (10,15,2)
       Min divergence: -0.71E-06 at (3,22,14)
       Max VN number:   0.51E-02 at (13,18,1)
       Mesh    4
       Max CFL number:  0.38E-02 at (19,20,3)
       Max divergence:  0.69E-06 at (4,10,2)
       Min divergence: -0.85E-06 at (8,23,19)
       Max VN number:   0.52E-02 at (1,22,2)
       Mesh    5
       Max CFL number:  0.29E+00 at (9,23,14)
       Max divergence:  0.70E-03 at (7,19,14)
       Min divergence: -0.13E-02 at (19,17,15)
       Max VN number:   0.13E+00 at (17,23,14)
       Radiation Loss to Boundaries:        -0.028 kW
       Mesh    6
       Max CFL number:  0.35E-02 at (23,2,19)
       Max divergence:  0.77E-06 at (16,11,2)
       Min divergence: -0.82E-06 at (15,23,19)
       Max VN number:   0.52E-02 at (21,22,1)
       Mesh    7
       Max CFL number:  0.10E-01 at (16,1,1)
       Max divergence:  0.79E-06 at (15,12,2)
       Min divergence: -0.12E-05 at (19,1,8)
       Max VN number:   0.59E-02 at (6,23,1)
       Mesh    8
       Max CFL number:  0.74E-02 at (9,25,11)
       Max divergence:  0.91E-06 at (12,10,2)
       Min divergence: -0.93E-06 at (10,25,12)
       Max VN number:   0.53E-02 at (13,25,12)
 
       Time Step     900   September  2, 2023  01:34:50
       Step Size:    0.827E-01 s, Total Time:      83.41 s
       Pressure Iterations: 1
       Maximum Velocity Error:  0.17E-01 on Mesh 1 at (10,15,15)
       Maximum Pressure Error:  0.32E+01 on Mesh 1 at (3,1,5)
       ---------------------------------------------------------------
       Mesh    1
       Max CFL number:  0.98E+00 at (3,1,6)
       Max divergence:  0.47E+00 at (4,5,1)
       Min divergence: -0.13E+00 at (4,3,3)
       Max VN number:   0.78E+00 at (4,1,13)
       Total Heat Release Rate:             27.510 kW
       Radiation Loss to Boundaries:        -9.484 kW
       Mesh    2
       Max CFL number:  0.85E-01 at (1,22,8)
       Max divergence:  0.18E-03 at (1,22,10)
       Min divergence: -0.17E-03 at (1,22,8)
       Max VN number:   0.50E-01 at (1,23,8)
       Mesh    3
       Max CFL number:  0.45E-02 at (18,17,15)
       Max divergence:  0.74E-06 at (10,15,2)
       Min divergence: -0.65E-06 at (3,22,14)
       Max VN number:   0.59E-02 at (17,24,1)
       Mesh    4
       Max CFL number:  0.63E-02 at (2,1,5)
       Max divergence:  0.65E-06 at (15,2,2)
       Min divergence: -0.76E-06 at (8,23,19)
       Max VN number:   0.61E-02 at (1,22,2)
       Mesh    5
       Max CFL number:  0.33E+00 at (3,23,15)
       Max divergence:  0.84E-03 at (23,20,8)
       Min divergence: -0.12E-02 at (17,23,14)
       Max VN number:   0.14E+00 at (21,23,9)
       Radiation Loss to Boundaries:        -0.059 kW
       Mesh    6
       Max CFL number:  0.41E-02 at (23,2,19)
       Max divergence:  0.72E-06 at (16,11,2)
       Min divergence: -0.77E-06 at (15,23,19)
       Max VN number:   0.63E-02 at (21,22,1)
       Mesh    7
       Max CFL number:  0.15E-01 at (17,1,2)
       Max divergence:  0.92E-05 at (19,1,10)
       Min divergence: -0.74E-06 at (17,1,14)
       Max VN number:   0.13E-01 at (16,1,1)
       Mesh    8
       Max CFL number:  0.57E-02 at (9,25,8)
       Max divergence:  0.83E-06 at (12,10,2)
       Min divergence: -0.72E-06 at (25,12,19)
       Max VN number:   0.53E-02 at (1,4,1)
 
       Time Step    1000   September  2, 2023  01:34:53
       Step Size:    0.607E-01 s, Total Time:      89.53 s
       Pressure Iterations: 1
       Maximum Velocity Error:  0.24E-01 on Mesh 1 at (9,15,15)
       Maximum Pressure Error:  0.74E+01 on Mesh 1 at (4,1,15)
       ---------------------------------------------------------------
       Mesh    1
       Max CFL number:  0.86E+00 at (4,1,14)
       Max divergence:  0.50E+00 at (4,5,1)
       Min divergence: -0.17E+00 at (4,2,3)
       Max VN number:   0.83E+00 at (1,8,12)
       Total Heat Release Rate:             29.629 kW
       Radiation Loss to Boundaries:       -11.130 kW
       Mesh    2
       Max CFL number:  0.95E-01 at (1,20,10)
       Max divergence:  0.47E-03 at (1,22,12)
       Min divergence: -0.11E-02 at (1,18,12)
       Max VN number:   0.42E-01 at (1,22,12)
       Radiation Loss to Boundaries:        -0.003 kW
       Mesh    3
       Max CFL number:  0.31E-02 at (18,17,15)
       Max divergence:  0.70E-06 at (10,15,2)
       Min divergence: -0.62E-06 at (18,17,14)
       Max VN number:   0.42E-02 at (13,18,1)
       Mesh    4
       Max CFL number:  0.90E-02 at (1,1,2)
       Max divergence:  0.61E-06 at (21,19,2)
       Min divergence: -0.10E-05 at (1,1,8)
       Max VN number:   0.42E-02 at (1,22,2)
       Mesh    5
       Max CFL number:  0.25E+00 at (3,23,14)
       Max divergence:  0.81E-03 at (25,18,6)
       Min divergence: -0.98E-03 at (8,21,14)
       Max VN number:   0.15E+00 at (23,23,15)
       Radiation Loss to Boundaries:        -0.086 kW
       Mesh    6
       Max CFL number:  0.29E-02 at (16,6,20)
       Max divergence:  0.68E-06 at (16,11,2)
       Min divergence: -0.73E-06 at (15,23,19)
       Max VN number:   0.44E-02 at (21,22,1)
       Mesh    7
       Max CFL number:  0.16E-01 at (19,1,11)
       Max divergence:  0.51E-04 at (19,1,11)
       Min divergence: -0.28E-05 at (19,1,9)
       Max VN number:   0.73E-02 at (19,1,1)
       Mesh    8
       Max CFL number:  0.41E-02 at (9,25,8)
       Max divergence:  0.77E-06 at (12,10,2)
       Min divergence: -0.66E-06 at (25,12,19)
       Max VN number:   0.37E-02 at (1,4,1)
 
       Time Step    1100   September  2, 2023  01:34:57
       Step Size:    0.540E-01 s, Total Time:      95.23 s
       Pressure Iterations: 1
       Maximum Velocity Error:  0.96E-02 on Mesh 1 at (3,15,15)
       Maximum Pressure Error:  0.45E+01 on Mesh 1 at (4,1,15)
       ---------------------------------------------------------------
       Mesh    1
       Max CFL number:  0.83E+00 at (4,1,14)
       Max divergence:  0.55E+00 at (5,5,1)
       Min divergence: -0.12E+00 at (3,2,2)
       Max VN number:   0.82E+00 at (1,7,13)
       Total Heat Release Rate:             31.497 kW
       Radiation Loss to Boundaries:       -11.841 kW
       Mesh    2
       Max CFL number:  0.18E+00 at (4,19,12)
       Max divergence:  0.17E-02 at (5,19,14)
       Min divergence: -0.18E-02 at (5,18,14)
       Max VN number:   0.93E-01 at (1,17,13)
       Radiation Loss to Boundaries:        -0.013 kW
       Mesh    3
       Max CFL number:  0.27E-02 at (18,17,15)
       Max divergence:  0.66E-06 at (10,15,2)
       Min divergence: -0.59E-06 at (18,17,14)
       Max VN number:   0.35E-02 at (13,18,1)
       Mesh    4
       Max CFL number:  0.17E-01 at (1,1,4)
       Max divergence:  0.56E-06 at (21,19,2)
       Min divergence: -0.29E-05 at (1,1,12)
       Max VN number:   0.36E-02 at (1,22,2)
       Radiation Loss to Boundaries:         0.001 kW
       Mesh    5
       Max CFL number:  0.22E+00 at (12,23,14)
       Max divergence:  0.15E-02 at (5,17,12)
       Min divergence: -0.14E-02 at (5,17,13)
       Max VN number:   0.22E+00 at (25,21,11)
       Radiation Loss to Boundaries:        -0.108 kW
       Mesh    6
       Max CFL number:  0.27E-02 at (1,1,18)
       Max divergence:  0.64E-06 at (16,11,2)
       Min divergence: -0.68E-06 at (15,23,19)
       Max VN number:   0.38E-02 at (21,22,1)
       Mesh    7
       Max CFL number:  0.10E+00 at (19,1,11)
       Max divergence:  0.57E-03 at (18,2,11)
       Min divergence: -0.88E-03 at (19,2,10)
       Max VN number:   0.40E-01 at (19,2,11)
       Mesh    8
       Max CFL number:  0.45E-02 at (15,25,10)
       Max divergence:  0.72E-06 at (12,10,2)
       Min divergence: -0.60E-06 at (25,12,19)
       Max VN number:   0.31E-02 at (1,4,1)
 
       Time Step    1200   September  2, 2023  01:35:01
       Step Size:    0.618E-01 s, Total Time:     100.43 s
       Pressure Iterations: 1
       Maximum Velocity Error:  0.78E-02 on Mesh 1 at (4,15,15)
       Maximum Pressure Error:  0.48E+01 on Mesh 1 at (5,1,15)
       ---------------------------------------------------------------
       Mesh    1
       Max CFL number:  0.82E+00 at (5,1,15)
       Max divergence:  0.54E+00 at (4,5,1)
       Min divergence: -0.23E+00 at (3,2,4)
       Max VN number:   0.91E+00 at (2,1,14)
       Total Heat Release Rate:             33.046 kW
       Radiation Loss to Boundaries:       -12.494 kW
       Mesh    2
       Max CFL number:  0.30E+00 at (7,19,17)
       Max divergence:  0.24E-02 at (1,22,11)
       Min divergence: -0.19E-02 at (4,21,8)
       Max VN number:   0.16E+00 at (1,17,16)
       Radiation Loss to Boundaries:        -0.026 kW
       Mesh    3
       Max CFL number:  0.30E-02 at (18,17,15)
[...]
       Max VN number:   0.12E+00 at (19,1,10)
       Radiation Loss to Boundaries:        -1.116 kW
       Mesh    8
       Max CFL number:  0.21E+00 at (7,9,20)
       Max divergence:  0.15E-02 at (11,23,10)
       Min divergence: -0.22E-02 at (15,24,10)
       Max VN number:   0.16E+00 at (20,3,20)
       Radiation Loss to Boundaries:        -1.283 kW
 
       Time Step    8900   September  2, 2023  01:39:28
       Step Size:    0.458E-01 s, Total Time:     471.69 s
       Pressure Iterations: 1
       Maximum Velocity Error:  0.19E-01 on Mesh 1 at (25,19,14)
       Maximum Pressure Error:  0.23E+02 on Mesh 1 at (7,1,15)
       ---------------------------------------------------------------
       Mesh    1
       Max CFL number:  0.87E+00 at (5,1,6)
       Max divergence:  0.15E+01 at (5,4,1)
       Min divergence: -0.36E+00 at (6,1,6)
       Max VN number:   0.84E+00 at (2,1,14)
       Total Heat Release Rate:             99.363 kW
       Radiation Loss to Boundaries:       -42.053 kW
       Mesh    2
       Max CFL number:  0.43E+00 at (5,21,18)
       Max divergence:  0.31E-01 at (3,19,10)
       Min divergence: -0.43E-01 at (3,18,10)
       Max VN number:   0.28E+00 at (5,19,20)
       Radiation Loss to Boundaries:        -1.476 kW
       Mesh    3
       Max CFL number:  0.14E+00 at (25,25,10)
       Max divergence:  0.10E-02 at (13,25,8)
       Min divergence: -0.22E-02 at (12,25,8)
       Max VN number:   0.11E+00 at (3,8,15)
       Radiation Loss to Boundaries:        -1.146 kW
       Mesh    4
       Max CFL number:  0.29E+00 at (14,1,20)
       Max divergence:  0.27E-02 at (13,3,19)
       Min divergence: -0.54E-02 at (1,16,20)
       Max VN number:   0.19E+00 at (1,16,18)
       Radiation Loss to Boundaries:        -1.261 kW
       Mesh    5
       Max CFL number:  0.39E+00 at (24,18,11)
       Max divergence:  0.16E-01 at (20,25,11)
       Min divergence: -0.35E-01 at (19,25,11)
       Max VN number:   0.48E+00 at (25,22,11)
       Radiation Loss to Boundaries:        -2.667 kW
       Mesh    6
       Max CFL number:  0.23E+00 at (11,3,20)
       Max divergence:  0.18E-02 at (25,20,9)
       Min divergence: -0.23E-02 at (25,4,9)
       Max VN number:   0.15E+00 at (11,20,20)
       Radiation Loss to Boundaries:        -1.371 kW
       Mesh    7
       Max CFL number:  0.29E+00 at (18,1,11)
       Max divergence:  0.17E-01 at (17,1,10)
       Min divergence: -0.22E-01 at (19,1,11)
       Max VN number:   0.19E+00 at (24,24,13)
       Radiation Loss to Boundaries:        -1.121 kW
       Mesh    8
       Max CFL number:  0.17E+00 at (4,2,20)
       Max divergence:  0.22E-02 at (17,24,11)
       Min divergence: -0.24E-02 at (17,25,11)
       Max VN number:   0.15E+00 at (7,25,6)
       Radiation Loss to Boundaries:        -1.302 kW
 
       Time Step    9000   September  2, 2023  01:39:31
       Step Size:    0.468E-01 s, Total Time:     476.17 s
       Pressure Iterations: 1
       Maximum Velocity Error:  0.53E-01 on Mesh 1 at (3,15,15)
       Maximum Pressure Error:  0.51E+02 on Mesh 1 at (6,1,15)
       ---------------------------------------------------------------
       Mesh    1
       Max CFL number:  0.96E+00 at (5,1,12)
       Max divergence:  0.15E+01 at (4,5,1)
       Min divergence: -0.35E+00 at (4,2,4)
       Max VN number:   0.74E+00 at (10,1,11)
       Total Heat Release Rate:             99.581 kW
       Radiation Loss to Boundaries:       -42.740 kW
       Mesh    2
       Max CFL number:  0.49E+00 at (7,20,17)
       Max divergence:  0.29E-01 at (1,23,12)
       Min divergence: -0.28E-01 at (1,22,12)
       Max VN number:   0.31E+00 at (1,15,19)
       Radiation Loss to Boundaries:        -1.491 kW
       Mesh    3
       Max CFL number:  0.13E+00 at (16,24,10)
       Max divergence:  0.79E-03 at (5,2,5)
       Min divergence: -0.19E-02 at (25,1,15)
       Max VN number:   0.13E+00 at (19,24,15)
       Radiation Loss to Boundaries:        -1.158 kW
       Mesh    4
       Max CFL number:  0.29E+00 at (1,5,18)
       Max divergence:  0.58E-02 at (2,6,17)
       Min divergence: -0.91E-02 at (1,9,18)
       Max VN number:   0.24E+00 at (1,24,17)
       Radiation Loss to Boundaries:        -1.290 kW
       Mesh    5
       Max CFL number:  0.40E+00 at (24,18,11)
       Max divergence:  0.15E-01 at (25,20,7)
       Min divergence: -0.36E-01 at (19,25,11)
       Max VN number:   0.54E+00 at (25,18,11)
       Radiation Loss to Boundaries:        -2.653 kW
       Mesh    6
       Max CFL number:  0.21E+00 at (1,21,20)
       Max divergence:  0.13E-02 at (9,1,14)
       Min divergence: -0.22E-02 at (4,1,13)
       Max VN number:   0.19E+00 at (24,1,17)
       Radiation Loss to Boundaries:        -1.367 kW
       Mesh    7
       Max CFL number:  0.30E+00 at (18,1,11)
       Max divergence:  0.25E-01 at (19,1,10)
       Min divergence: -0.19E-01 at (19,1,12)
       Max VN number:   0.16E+00 at (24,24,13)
       Radiation Loss to Boundaries:        -1.130 kW
       Mesh    8
       Max CFL number:  0.25E+00 at (1,12,20)
       Max divergence:  0.16E-02 at (12,23,10)
       Min divergence: -0.24E-02 at (1,14,20)
       Max VN number:   0.16E+00 at (23,25,13)
       Radiation Loss to Boundaries:        -1.315 kW
 
       Time Step    9100   September  2, 2023  01:39:35
       Step Size:    0.513E-01 s, Total Time:     480.73 s
       Pressure Iterations: 1
       Maximum Velocity Error:  0.24E-01 on Mesh 1 at (5,15,15)
       Maximum Pressure Error:  0.15E+02 on Mesh 1 at (5,1,15)
       ---------------------------------------------------------------
       Mesh    1
       Max CFL number:  0.86E+00 at (5,1,5)
       Max divergence:  0.14E+01 at (5,5,1)
       Min divergence: -0.34E+00 at (5,2,5)
       Max VN number:   0.79E+00 at (4,1,14)
       Total Heat Release Rate:             99.626 kW
       Radiation Loss to Boundaries:       -41.114 kW
       Mesh    2
       Max CFL number:  0.49E+00 at (7,22,20)
       Max divergence:  0.31E-01 at (1,22,12)
       Min divergence: -0.25E-01 at (3,19,9)
       Max VN number:   0.34E+00 at (1,12,16)
       Radiation Loss to Boundaries:        -1.533 kW
       Mesh    3
       Max CFL number:  0.16E+00 at (21,21,15)
       Max divergence:  0.95E-03 at (19,24,9)
       Min divergence: -0.21E-02 at (24,25,9)
       Max VN number:   0.12E+00 at (25,25,9)
       Radiation Loss to Boundaries:        -1.170 kW
       Mesh    4
       Max CFL number:  0.37E+00 at (1,4,18)
       Max divergence:  0.55E-02 at (7,1,19)
       Min divergence: -0.65E-02 at (7,1,20)
       Max VN number:   0.28E+00 at (1,24,17)
       Radiation Loss to Boundaries:        -1.288 kW
       Mesh    5
       Max CFL number:  0.40E+00 at (24,22,11)
       Max divergence:  0.15E-01 at (24,22,8)
       Min divergence: -0.33E-01 at (6,15,11)
       Max VN number:   0.55E+00 at (25,18,11)
       Radiation Loss to Boundaries:        -2.650 kW
       Mesh    6
       Max CFL number:  0.21E+00 at (3,4,20)
       Max divergence:  0.14E-02 at (14,1,16)
       Min divergence: -0.24E-02 at (3,3,20)
       Max VN number:   0.20E+00 at (2,3,20)
       Radiation Loss to Boundaries:        -1.349 kW
       Mesh    7
       Max CFL number:  0.33E+00 at (18,1,11)
       Max divergence:  0.20E-01 at (19,1,10)
       Min divergence: -0.19E-01 at (18,1,11)
       Max VN number:   0.13E+00 at (1,25,9)
       Radiation Loss to Boundaries:        -1.149 kW
       Mesh    8
       Max CFL number:  0.24E+00 at (10,22,20)
       Max divergence:  0.14E-02 at (9,23,20)
       Min divergence: -0.30E-02 at (10,23,20)
       Max VN number:   0.24E+00 at (9,23,20)
       Radiation Loss to Boundaries:        -1.354 kW
 
       Time Step    9200   September  2, 2023  01:39:38
       Step Size:    0.482E-01 s, Total Time:     485.36 s
       Pressure Iterations: 1
       Maximum Velocity Error:  0.21E-01 on Mesh 1 at (12,15,15)
       Maximum Pressure Error:  0.28E+02 on Mesh 1 at (6,1,15)
       ---------------------------------------------------------------
       Mesh    1
       Max CFL number:  0.92E+00 at (6,1,13)
       Max divergence:  0.14E+01 at (5,5,1)
       Min divergence: -0.46E+00 at (4,2,5)
       Max VN number:   0.78E+00 at (8,1,14)
       Total Heat Release Rate:             99.551 kW
       Radiation Loss to Boundaries:       -43.028 kW
       Mesh    2
       Max CFL number:  0.42E+00 at (5,20,19)
       Max divergence:  0.31E-01 at (3,22,14)
       Min divergence: -0.50E-01 at (1,19,15)
       Max VN number:   0.44E+00 at (1,19,15)
       Radiation Loss to Boundaries:        -1.545 kW
       Mesh    3
       Max CFL number:  0.14E+00 at (19,22,15)
       Max divergence:  0.12E-02 at (21,24,9)
       Min divergence: -0.22E-02 at (24,25,9)
       Max VN number:   0.11E+00 at (4,25,7)
       Radiation Loss to Boundaries:        -1.172 kW
       Mesh    4
       Max CFL number:  0.24E+00 at (3,12,20)
       Max divergence:  0.34E-02 at (8,2,19)
       Min divergence: -0.62E-02 at (1,7,18)
       Max VN number:   0.25E+00 at (1,13,16)
       Radiation Loss to Boundaries:        -1.301 kW
       Mesh    5
       Max CFL number:  0.42E+00 at (24,19,11)
       Max divergence:  0.25E-01 at (25,21,7)
       Min divergence: -0.39E-01 at (6,15,11)
       Max VN number:   0.49E+00 at (25,18,11)
       Radiation Loss to Boundaries:        -2.670 kW
       Mesh    6
       Max CFL number:  0.22E+00 at (2,8,20)
       Max divergence:  0.12E-02 at (24,11,9)
       Min divergence: -0.18E-02 at (25,13,11)
       Max VN number:   0.15E+00 at (12,22,20)
       Radiation Loss to Boundaries:        -1.348 kW
       Mesh    7
       Max CFL number:  0.31E+00 at (17,1,11)
       Max divergence:  0.20E-01 at (19,1,10)
       Min divergence: -0.21E-01 at (18,1,11)
       Max VN number:   0.22E+00 at (6,1,15)
       Radiation Loss to Boundaries:        -1.178 kW
       Mesh    8
       Max CFL number:  0.20E+00 at (5,18,20)
       Max divergence:  0.16E-02 at (17,25,7)
       Min divergence: -0.21E-02 at (17,25,8)
       Max VN number:   0.19E+00 at (24,14,20)
       Radiation Loss to Boundaries:        -1.384 kW
 
       Time Step    9300   September  2, 2023  01:39:42
       Step Size:    0.445E-01 s, Total Time:     489.90 s
       Pressure Iterations: 1
       Maximum Velocity Error:  0.13E-01 on Mesh 1 at (6,15,15)
       Maximum Pressure Error:  0.16E+02 on Mesh 1 at (6,1,15)
       ---------------------------------------------------------------
       Mesh    1
       Max CFL number:  0.74E+00 at (7,1,11)
       Max divergence:  0.16E+01 at (4,4,1)
       Min divergence: -0.31E+00 at (5,2,4)
       Max VN number:   0.89E+00 at (2,1,14)
       Total Heat Release Rate:             99.664 kW
       Radiation Loss to Boundaries:       -42.292 kW
       Mesh    2
       Max CFL number:  0.39E+00 at (4,22,16)
       Max divergence:  0.31E-01 at (5,21,18)
       Min divergence: -0.44E-01 at (5,22,17)
       Max VN number:   0.21E+00 at (1,5,15)
       Radiation Loss to Boundaries:        -1.573 kW
       Mesh    3
       Max CFL number:  0.14E+00 at (25,23,15)
       Max divergence:  0.16E-02 at (1,21,5)
       Min divergence: -0.21E-02 at (1,20,5)
       Max VN number:   0.16E+00 at (22,1,15)
       Radiation Loss to Boundaries:        -1.186 kW
       Mesh    4
       Max CFL number:  0.28E+00 at (6,4,20)
       Max divergence:  0.32E-02 at (9,2,19)
       Min divergence: -0.52E-02 at (7,1,20)
       Max VN number:   0.18E+00 at (1,19,18)
       Radiation Loss to Boundaries:        -1.309 kW
       Mesh    5
       Max CFL number:  0.36E+00 at (24,20,11)
       Max divergence:  0.14E-01 at (19,24,9)
       Min divergence: -0.35E-01 at (19,25,11)
       Max VN number:   0.48E+00 at (25,20,11)
       Radiation Loss to Boundaries:        -2.646 kW
       Mesh    6
       Max CFL number:  0.21E+00 at (1,9,20)
       Max divergence:  0.11E-02 at (4,15,19)
       Min divergence: -0.25E-02 at (3,9,20)
       Max VN number:   0.15E+00 at (24,16,20)
       Radiation Loss to Boundaries:        -1.358 kW
       Mesh    7
       Max CFL number:  0.30E+00 at (19,1,11)
       Max divergence:  0.23E-01 at (19,1,10)
       Min divergence: -0.21E-01 at (19,2,12)
       Max VN number:   0.23E+00 at (24,20,14)
       Radiation Loss to Boundaries:        -1.190 kW
       Mesh    8
       Max CFL number:  0.19E+00 at (1,5,20)
       Max divergence:  0.14E-02 at (2,3,19)
       Min divergence: -0.26E-02 at (2,4,20)
       Max VN number:   0.17E+00 at (1,3,20)
       Radiation Loss to Boundaries:        -1.390 kW
 
       Time Step    9400   September  2, 2023  01:39:45
       Step Size:    0.429E-01 s, Total Time:     494.44 s
       Pressure Iterations: 1
       Maximum Velocity Error:  0.14E-01 on Mesh 2 at (18,25,20)
       Maximum Pressure Error:  0.20E+02 on Mesh 1 at (7,1,12)
       ---------------------------------------------------------------
       Mesh    1
       Max CFL number:  0.83E+00 at (7,1,12)
       Max divergence:  0.15E+01 at (4,5,1)
       Min divergence: -0.30E+00 at (5,2,3)
       Max VN number:   0.79E+00 at (9,1,14)
       Total Heat Release Rate:             99.937 kW
       Radiation Loss to Boundaries:       -42.661 kW
       Mesh    2
       Max CFL number:  0.39E+00 at (6,20,14)
       Max divergence:  0.24E-01 at (5,21,12)
       Min divergence: -0.33E-01 at (5,20,12)
       Max VN number:   0.37E+00 at (1,19,12)
       Radiation Loss to Boundaries:        -1.548 kW
       Mesh    3
       Max CFL number:  0.13E+00 at (24,17,15)
       Max divergence:  0.10E-02 at (24,23,9)
       Min divergence: -0.20E-02 at (25,25,8)
       Max VN number:   0.97E-01 at (18,23,15)
       Radiation Loss to Boundaries:        -1.193 kW
       Mesh    4
       Max CFL number:  0.27E+00 at (5,17,20)
       Max divergence:  0.55E-02 at (12,1,19)
       Min divergence: -0.71E-02 at (8,4,20)
       Max VN number:   0.19E+00 at (1,24,18)
       Radiation Loss to Boundaries:        -1.357 kW
       Mesh    5
       Max CFL number:  0.33E+00 at (24,18,11)
       Max divergence:  0.21E-01 at (16,25,10)
       Min divergence: -0.40E-01 at (6,15,11)
       Max VN number:   0.42E+00 at (25,20,11)
       Radiation Loss to Boundaries:        -2.691 kW
       Mesh    6
       Max CFL number:  0.18E+00 at (3,2,20)
       Max divergence:  0.98E-03 at (24,20,10)
       Min divergence: -0.21E-02 at (6,7,20)
       Max VN number:   0.16E+00 at (24,20,20)
       Radiation Loss to Boundaries:        -1.392 kW
       Mesh    7
       Max CFL number:  0.30E+00 at (18,1,11)
       Max divergence:  0.14E-01 at (20,1,12)
       Min divergence: -0.23E-01 at (18,1,11)
       Max VN number:   0.15E+00 at (22,21,15)
       Radiation Loss to Boundaries:        -1.195 kW
       Mesh    8
       Max CFL number:  0.19E+00 at (2,4,20)
       Max divergence:  0.22E-02 at (14,23,10)
       Min divergence: -0.17E-02 at (25,25,8)
       Max VN number:   0.17E+00 at (3,2,20)
       Radiation Loss to Boundaries:        -1.382 kW
 
       Time Step    9500   September  2, 2023  01:39:49
       Step Size:    0.469E-01 s, Total Time:     498.94 s
       Pressure Iterations: 1
       Maximum Velocity Error:  0.17E-01 on Mesh 1 at (25,23,14)
       Maximum Pressure Error:  0.14E+02 on Mesh 1 at (5,1,15)
       ---------------------------------------------------------------
       Mesh    1
       Max CFL number:  0.81E+00 at (8,1,12)
       Max divergence:  0.15E+01 at (5,5,1)
       Min divergence: -0.48E+00 at (5,2,5)
       Max VN number:   0.63E+00 at (4,1,14)
       Total Heat Release Rate:             98.727 kW
       Radiation Loss to Boundaries:       -41.874 kW
       Mesh    2
       Max CFL number:  0.40E+00 at (5,5,20)
       Max divergence:  0.24E-01 at (4,19,10)
       Min divergence: -0.23E-01 at (1,18,10)
       Max VN number:   0.32E+00 at (10,21,20)
       Radiation Loss to Boundaries:        -1.564 kW
       Mesh    3
       Max CFL number:  0.14E+00 at (24,21,15)
       Max divergence:  0.10E-02 at (1,7,5)
       Min divergence: -0.17E-02 at (19,25,8)
       Max VN number:   0.11E+00 at (8,1,15)
       Radiation Loss to Boundaries:        -1.206 kW
       Mesh    4
       Max CFL number:  0.25E+00 at (1,3,19)
       Max divergence:  0.47E-02 at (2,2,17)
       Min divergence: -0.54E-02 at (6,1,20)
       Max VN number:   0.17E+00 at (22,24,20)
       Radiation Loss to Boundaries:        -1.351 kW
       Mesh    5
       Max CFL number:  0.42E+00 at (24,18,10)
       Max divergence:  0.22E-01 at (18,25,13)
       Min divergence: -0.41E-01 at (19,25,11)
       Max VN number:   0.45E+00 at (25,20,11)
       Radiation Loss to Boundaries:        -2.704 kW
       Mesh    6
       Max CFL number:  0.28E+00 at (3,6,20)
       Max divergence:  0.98E-03 at (23,20,10)
       Min divergence: -0.24E-02 at (5,6,20)
       Max VN number:   0.22E+00 at (2,5,20)
       Radiation Loss to Boundaries:        -1.424 kW
       Mesh    7
       Max CFL number:  0.30E+00 at (19,1,11)
       Max divergence:  0.33E-01 at (19,1,10)
       Min divergence: -0.26E-01 at (18,1,11)
       Max VN number:   0.20E+00 at (24,24,13)
       Radiation Loss to Boundaries:        -1.197 kW
       Mesh    8
       Max CFL number:  0.21E+00 at (8,6,20)
       Max divergence:  0.17E-02 at (14,25,10)
       Min divergence: -0.18E-02 at (10,6,20)
       Max VN number:   0.16E+00 at (10,6,20)
       Radiation Loss to Boundaries:        -1.396 kW
 
       Time Step    9524   September  2, 2023  01:39:49
       Step Size:    0.278E-01 s, Total Time:     500.00 s
       Pressure Iterations: 1
       Maximum Velocity Error:  0.68E-02 on Mesh 1 at (6,15,15)
       Maximum Pressure Error:  0.30E+02 on Mesh 1 at (4,3,1)
       ---------------------------------------------------------------
       Mesh    1
       Max CFL number:  0.57E+00 at (8,1,13)
       Max divergence:  0.15E+01 at (5,5,1)
       Min divergence: -0.33E+00 at (5,2,3)
       Max VN number:   0.51E+00 at (2,1,14)
       Total Heat Release Rate:            103.244 kW
       Radiation Loss to Boundaries:       -42.481 kW
       Mesh    2
       Max CFL number:  0.26E+00 at (7,19,18)
       Max divergence:  0.20E-01 at (6,21,16)
       Min divergence: -0.25E-01 at (4,19,9)
       Max VN number:   0.15E+00 at (3,21,20)
       Radiation Loss to Boundaries:        -1.578 kW
       Mesh    3
       Max CFL number:  0.84E-01 at (22,21,15)
       Max divergence:  0.17E-02 at (19,25,8)
       Min divergence: -0.20E-02 at (25,25,10)
       Max VN number:   0.70E-01 at (23,22,15)
       Radiation Loss to Boundaries:        -1.209 kW
       Mesh    4
       Max CFL number:  0.14E+00 at (19,8,20)
       Max divergence:  0.31E-02 at (8,1,19)
       Min divergence: -0.52E-02 at (1,5,17)
       Max VN number:   0.14E+00 at (1,6,19)
       Radiation Loss to Boundaries:        -1.348 kW
       Mesh    5
       Max CFL number:  0.24E+00 at (16,21,15)
       Max divergence:  0.17E-01 at (18,25,13)
       Min divergence: -0.32E-01 at (19,25,11)
       Max VN number:   0.28E+00 at (25,20,11)
       Radiation Loss to Boundaries:        -2.688 kW
       Mesh    6
       Max CFL number:  0.14E+00 at (6,6,20)
       Max divergence:  0.16E-02 at (25,17,9)
       Min divergence: -0.31E-02 at (2,16,20)
       Max VN number:   0.13E+00 at (5,4,20)
       Radiation Loss to Boundaries:        -1.428 kW
       Mesh    7
       Max CFL number:  0.17E+00 at (19,1,11)
       Max divergence:  0.24E-01 at (20,1,11)
       Min divergence: -0.25E-01 at (19,1,11)
       Max VN number:   0.98E-01 at (23,2,15)
       Radiation Loss to Boundaries:        -1.196 kW
       Mesh    8
       Max CFL number:  0.12E+00 at (1,23,20)
       Max divergence:  0.15E-02 at (11,23,10)
       Min divergence: -0.26E-02 at (5,25,10)
       Max VN number:   0.11E+00 at (11,7,20)
       Radiation Loss to Boundaries:        -1.400 kW
 


 Time Stepping Wall Clock Time (s):      331.003
 Total Elapsed Wall Clock Time (s):      333.687

STOP: FDS completed successfully (CHID: model)
